@<TRIPOS>MOLECULE
3R136
137   139    1
SMALL
USER_CHARGES


@<TRIPOS>ATOM
      1 CA         27.5042   21.9784   -1.6276 C.3       0 UNK        -0.1979 
      2 C          27.6508   23.1590   -0.6808 C.2       0 UNK         0.4864 
      3 O          27.0421   24.2013   -0.9195 O.2       0 UNK        -0.5359 
      4 N          28.4562   23.0037    0.3788 N.am      1 UNK        -0.4318 
      5 CA         28.7038   23.9938    1.4349 C.3       1 UNK         0.0824 
      6 C6         29.7235   23.4345    2.4568 C.3       12 UNK        -0.0944 
      7 S7         30.4034   24.6982    3.5844 S.3       12 UNK        -0.2672 
      8 C8         32.1581   24.7410    3.1032 C.3       12 UNK         0.0333 
      9 C9         32.4365   25.7828    2.0291 C.ar      12 UNK        -0.0807 
     10 C10        32.9667   27.0247    2.3911 C.ar      12 UNK        -0.0894 
     11 C11        33.2855   27.9745    1.4173 C.ar      12 UNK        -0.0804 
     12 C12        33.0609   27.6786    0.0702 C.ar      12 UNK        -0.0824 
     13 C13        32.5306   26.4403   -0.3075 C.ar      12 UNK        -0.0762 
     14 C14        32.2158   25.4965    0.6771 C.ar      12 UNK        -0.0782 
     15 C15        32.3664   26.1074   -1.7846 C.3       12 UNK         0.0230 
     16 S16        31.0962   27.1303   -2.5917 S.3       12 UNK        -0.2608 
     17 C17        29.5768   26.2301   -2.1467 C.3       12 UNK        -0.0989 
     18 CA         28.3131   27.1159   -2.3054 C.3       5 UNK         0.0716 
     19 N          27.1567   26.3100   -2.6746 N.am      5 UNK        -0.4135 
     20 C          26.2684   26.5902   -3.6333 C.2       4 UNK         0.5031 
     21 O          26.3820   27.5147   -4.4395 O.2       4 UNK        -0.5229 
     22 CA         25.0251   25.6864   -3.6859 C.3       4 UNK         0.0329 
     23 CB         25.3129   24.4150   -4.5010 C.3       4 UNK        -0.2001 
     24 N          24.5651   25.3113   -2.3467 N.am      4 UNK        -0.4303 
     25 C          23.9651   26.1435   -1.4852 C.2       3 UNK         0.5044 
     26 O          23.6443   27.3014   -1.7566 O.2       3 UNK        -0.5152 
     27 CA         23.6843   25.5994   -0.0806 C.3       3 UNK         0.0319 
     28 CB         23.4887   24.0666   -0.0311 C.3       3 UNK        -0.2001 
     29 N          24.7797   26.0043    0.7947 N.am      3 UNK        -0.4354 
     30 C          24.7204   26.0591    2.1299 C.2       2 UNK         0.4964 
     31 O          23.6940   25.8355    2.7759 O.2       2 UNK        -0.5047 
     32 CA         26.0329   26.4070    2.8636 C.3       2 UNK         0.0288 
     33 CB         25.9596   26.1442    4.3837 C.3       2 UNK        -0.2113 
     34 N          27.2093   25.7417    2.2907 N.am      2 UNK        -0.4145 
     35 C          27.3914   24.4227    2.1256 C.2       1 UNK         0.5006 
     36 O          26.5936   23.5545    2.4923 O.2       1 UNK        -0.5103 
     37 C          27.9878   27.8904   -1.0132 C.2       5 UNK         0.5055 
     38 O          26.9677   27.6349   -0.3639 O.2       5 UNK        -0.5220 
     39 N          28.8785   28.8260   -0.6689 N.am      6 UNK        -0.4450 
     40 CA         28.8164   29.6794    0.5179 C.3       6 UNK         0.0367 
     41 CB         29.9287   30.7348    0.4029 C.3       6 UNK        -0.1929 
     42 C          28.9199   28.9009    1.8447 C.2       6 UNK         0.5070 
     43 O          29.2518   27.7133    1.8521 O.2       6 UNK        -0.5237 
     44 N          28.6126   29.5957    2.9452 N.am      7 UNK        -0.4739 
     45 CA         28.7024   29.0923    4.3142 C.3       7 UNK         0.0276 
     46 CB         27.3710   29.3874    5.0306 C.3       7 UNK        -0.1927 
     47 C          29.8430   29.8312    5.0374 C.2       7 UNK         0.5013 
     48 O          29.9158   31.0541    4.9088 O.2       7 UNK        -0.5193 
     49 N          30.7003   29.1700    5.8255 N.am      8 UNK        -0.4253 
     50 CA         30.8596   27.7260    6.0114 C.3       8 UNK         0.0242 
     51 CB         29.7457   27.1255    6.8940 C.3       8 UNK        -0.2000 
     52 C          32.2392   27.4523    6.6187 C.2       8 UNK         0.4948 
     53 O          33.0212   26.6944    6.0452 O.2       8 UNK        -0.5275 
     54 N          32.5395   28.1088    7.7497 N.am      9 UNK        -0.4246 
     55 CA         33.8167   28.0239    8.4670 C.3       9 UNK         0.0261 
     56 CB         33.6095   28.5090    9.9140 C.3       9 UNK        -0.1959 
     57 C          34.9264   28.8055    7.7377 C.2       9 UNK         0.5033 
     58 O          35.3406   29.8704    8.1993 O.2       9 UNK        -0.5390 
     59 N          35.3284   28.2904    6.5673 N.am      10 UNK        -0.4215 
     60 CA         36.3034   28.8432    5.6137 C.3       10 UNK         0.0240 
     61 CB         37.7072   28.9355    6.2488 C.3       10 UNK        -0.1982 
     62 C          35.8781   30.1740    4.9555 C.2       10 UNK         0.4970 
     63 O          36.6828   30.7690    4.2377 O.2       10 UNK        -0.4916 
     64 N          34.6275   30.5994    5.1836 N.am      11 UNK        -0.4279 
     65 CA         34.0015   31.8287    4.6664 C.3       11 UNK         0.1003 
     66 C          34.6684   33.1488    5.1626 C.2       11 UNK         0.5709 
     67 N          35.3815   33.1390    6.2836 N.am      11 UNK        -0.7358 
     68 O          34.5153   34.2029    4.5494 O.2       11 UNK        -0.4999 
     69 C69        33.7744   31.7870    3.1279 C.3       12 UNK        -0.0954 
     70 S70        32.7126   30.3893    2.6319 S.3       12 UNK        -0.2268 
     71 C71        33.9165   29.2970    1.8235 C.3       12 UNK         0.0203 
     72 H72        27.8432   22.2554   -2.6254 H         1 UNK         0.0888 
     73 H73        28.0839   21.1161   -1.2988 H         1 UNK         0.0888 
     74 H74        26.4584   21.6795   -1.6930 H         1 UNK         0.0888 
     75 H75        28.8981   22.1071    0.5197 H         1 UNK         0.3017 
     76 H76        29.1417   24.8701    0.9531 H         1 UNK         0.0873 
     77 H77        30.5483   22.9563    1.9275 H         1 UNK         0.0745 
     78 H78        29.2714   22.6450    3.0607 H         1 UNK         0.0745 
     79 H79        32.4937   23.7573    2.7731 H         1 UNK         0.0705 
     80 H80        32.7469   24.9634    3.9940 H         1 UNK         0.0705 
     81 H81        33.1474   27.2502    3.4330 H         1 UNK         0.1334 
     82 H82        33.3166   28.4034   -0.6906 H         1 UNK         0.1417 
     83 H83        31.8214   24.5310    0.3924 H         1 UNK         0.1562 
     84 H84        33.3190   26.2763   -2.2886 H         1 UNK         0.0748 
     85 H85        32.1318   25.0514   -1.9288 H         1 UNK         0.0748 
     86 H86        29.6618   25.8213   -1.1383 H         1 UNK         0.0940 
     87 H87        29.5204   25.3659   -2.8111 H         1 UNK         0.0940 
     88 H88        28.4883   27.8531   -3.0922 H         1 UNK         0.0703 
     89 H89        26.9561   25.5449   -2.0297 H         1 UNK         0.3081 
     90 H90        24.2262   26.2408   -4.1832 H         1 UNK         0.0719 
     91 H91        26.0953   23.8085   -4.0429 H         1 UNK         0.0809 
     92 H92        24.4210   23.7957   -4.5977 H         1 UNK         0.0809 
     93 H93        25.6432   24.6661   -5.5099 H         1 UNK         0.0809 
     94 H94        24.8380   24.3987   -2.0094 H         1 UNK         0.2990 
     95 H95        22.7629   26.0746    0.2625 H         1 UNK         0.0690 
     96 H96        23.1206   23.7512    0.9452 H         1 UNK         0.0788 
     97 H97        24.4185   23.5273   -0.2148 H         1 UNK         0.0788 
     98 H98        22.7558   23.7368   -0.7687 H         1 UNK         0.0788 
     99 H99        25.6405   26.2898    0.3320 H         1 UNK         0.2993 
    100 H100       26.1875   27.4751    2.7087 H         1 UNK         0.0949 
    101 H101       26.9011   26.3878    4.8747 H         1 UNK         0.0767 
    102 H102       25.1820   26.7506    4.8495 H         1 UNK         0.0767 
    103 H103       25.7323   25.1001    4.6017 H         1 UNK         0.0767 
    104 H104       27.9491   26.3718    1.9812 H         1 UNK         0.3013 
    105 H105       29.7160   28.9016   -1.2289 H         1 UNK         0.3121 
    106 H106       27.8494   30.1866    0.5103 H         1 UNK         0.0774 
    107 H107       29.7828   31.3705   -0.4705 H         1 UNK         0.0815 
    108 H108       29.9564   31.3899    1.2746 H         1 UNK         0.0815 
    109 H109       30.9102   30.2678    0.3143 H         1 UNK         0.0815 
    110 H110       28.4226   30.5850    2.8626 H         1 UNK         0.2987 
    111 H111       28.8692   28.0158    4.3006 H         1 UNK         0.0949 
    112 H112       27.1868   30.4593    5.1163 H         1 UNK         0.0806 
    113 H113       26.5230   28.9557    4.5026 H         1 UNK         0.0806 
    114 H114       27.3673   28.9795    6.0415 H         1 UNK         0.0806 
    115 H115       31.4103   29.7276    6.2755 H         1 UNK         0.3010 
    116 H116       30.8486   27.2421    5.0331 H         1 UNK         0.0829 
    117 H117       28.7820   27.1061    6.3902 H         1 UNK         0.0813 
    118 H118       29.9750   26.0912    7.1554 H         1 UNK         0.0813 
    119 H119       29.6225   27.6769    7.8266 H         1 UNK         0.0813 
    120 H120       31.8348   28.6979    8.1700 H         1 UNK         0.3038 
    121 H121       34.1262   26.9771    8.5100 H         1 UNK         0.0769 
    122 H122       33.2705   29.5451    9.9512 H         1 UNK         0.0811 
    123 H123       34.5395   28.4506   10.4813 H         1 UNK         0.0811 
    124 H124       32.8748   27.8963   10.4368 H         1 UNK         0.0811 
    125 H125       34.8297   27.4604    6.2532 H         1 UNK         0.3204 
    126 H126       36.3599   28.1196    4.7991 H         1 UNK         0.0748 
    127 H127       38.4587   29.1989    5.5034 H         1 UNK         0.0771 
    128 H128       37.7502   29.6930    7.0318 H         1 UNK         0.0771 
    129 H129       38.0083   27.9834    6.6857 H         1 UNK         0.0771 
    130 H130       34.0597   30.0510    5.8085 H         1 UNK         0.2980 
    131 H131       33.0121   31.8547    5.1246 H         1 UNK         0.0545 
    132 H132       35.5018   32.2845    6.8063 H         1 UNK         0.3459 
    133 H133       35.8028   33.9948    6.6083 H         1 UNK         0.3459 
    134 H134       34.7242   31.7494    2.5926 H         1 UNK         0.0616 
    135 H135       33.2730   32.6956    2.7906 H         1 UNK         0.0616 
    136 H136       34.3359   29.8090    0.9561 H         1 UNK         0.0634 
    137 H137       34.7479   29.1019    2.5004 H         1 UNK         0.0634 
@<TRIPOS>BOND
     1    1    2 1    
     2    1   72 1    
     3    1   73 1    
     4    1   74 1    
     5    2    3 2    
     6    2    4 am   BACKBONE|DICT|INTERRES
     7    4    5 1    
     8    4   75 1    
     9    5    6 1    
    10    5   35 1    
    11    5   76 1    
    12    6    7 1    
    13    6   77 1    
    14    6   78 1    
    15    7    8 1    
    16    8    9 1    
    17    8   79 1    
    18    8   80 1    
    19    9   10 ar   
    20    9   14 ar   
    21   10   11 ar   
    22   10   81 1    
    23   11   12 ar   
    24   11   71 1    
    25   12   13 ar   
    26   12   82 1    
    27   13   14 ar   
    28   13   15 1    
    29   14   83 1    
    30   15   16 1    
    31   15   84 1    
    32   15   85 1    
    33   16   17 1    
    34   17   18 1    
    35   17   86 1    
    36   17   87 1    
    37   18   19 1    
    38   18   37 1    
    39   18   88 1    
    40   19   20 am   BACKBONE|DICT|INTERRES
    41   19   89 1    
    42   20   21 2    
    43   20   22 1    
    44   22   23 1    
    45   22   24 1    
    46   22   90 1    
    47   23   91 1    
    48   23   92 1    
    49   23   93 1    
    50   24   25 am   BACKBONE|DICT|INTERRES
    51   24   94 1    
    52   25   26 2    
    53   25   27 1    
    54   27   28 1    
    55   27   29 1    
    56   27   95 1    
    57   28   96 1    
    58   28   97 1    
    59   28   98 1    
    60   29   30 am   BACKBONE|DICT|INTERRES
    61   29   99 1    
    62   30   31 2    
    63   30   32 1    
    64   32   33 1    
    65   32   34 1    
    66   32  100 1    
    67   33  101 1    
    68   33  102 1    
    69   33  103 1    
    70   34   35 am   BACKBONE|DICT|INTERRES
    71   34  104 1    
    72   35   36 2    
    73   37   38 2    
    74   37   39 am   BACKBONE|DICT|INTERRES
    75   39   40 1    
    76   39  105 1    
    77   40   41 1    
    78   40   42 1    
    79   40  106 1    
    80   41  107 1    
    81   41  108 1    
    82   41  109 1    
    83   42   43 2    
    84   42   44 am   BACKBONE|DICT|INTERRES
    85   44   45 1    
    86   44  110 1    
    87   45   46 1    
    88   45   47 1    
    89   45  111 1    
    90   46  112 1    
    91   46  113 1    
    92   46  114 1    
    93   47   48 2    
    94   47   49 am   BACKBONE|DICT|INTERRES
    95   49   50 1    
    96   49  115 1    
    97   50   51 1    
    98   50   52 1    
    99   50  116 1    
   100   51  117 1    
   101   51  118 1    
   102   51  119 1    
   103   52   53 2    
   104   52   54 am   BACKBONE|DICT|INTERRES
   105   54   55 1    
   106   54  120 1    
   107   55   56 1    
   108   55   57 1    
   109   55  121 1    
   110   56  122 1    
   111   56  123 1    
   112   56  124 1    
   113   57   58 2    
   114   57   59 am   BACKBONE|DICT|INTERRES
   115   59   60 1    
   116   59  125 1    
   117   60   61 1    
   118   60   62 1    
   119   60  126 1    
   120   61  127 1    
   121   61  128 1    
   122   61  129 1    
   123   62   63 2    
   124   62   64 am   BACKBONE|DICT|INTERRES
   125   64   65 1    
   126   64  130 1    
   127   65   66 1    
   128   65   69 1    
   129   65  131 1    
   130   66   67 am   BACKBONE|DICT|INTERRES
   131   66   68 2    
   132   67  132 1    
   133   67  133 1    
   134   69   70 1    
   135   69  134 1    
   136   69  135 1    
   137   70   71 1    
   138   71  136 1    
   139   71  137 1    
@<TRIPOS>SUBSTRUCTURE
     1 UNK         1 GROUP             0       ****    0 ROOT    
