@<TRIPOS>MOLECULE
3R136
137   139    1
SMALL
USER_CHARGES


@<TRIPOS>ATOM
      1 CA         27.6830   27.0605   -2.7199 C.3       0 UNK        -0.1979 
      2 C          27.9000   25.8948   -1.7683 C.2       0 UNK         0.4864 
      3 O          27.0255   25.6138   -0.9468 O.2       0 UNK        -0.5359 
      4 N          29.0535   25.2184   -1.8671 N.am      1 UNK        -0.4318 
      5 CA         29.4376   24.0477   -1.0677 C.3       1 UNK         0.0824 
      6 C6         30.8576   23.5620   -1.4612 C.3       12 UNK        -0.0944 
      7 S7         31.4395   22.0870   -0.5523 S.3       12 UNK        -0.2672 
      8 C8         32.5086   22.8222    0.7235 C.3       12 UNK         0.0333 
      9 C9         31.7380   23.6551    1.7410 C.ar      12 UNK        -0.0807 
     10 C10        32.1400   24.9648    2.0163 C.ar      12 UNK        -0.0894 
     11 C11        31.4987   25.7139    3.0070 C.ar      12 UNK        -0.0804 
     12 C12        30.4227   25.1553    3.7044 C.ar      12 UNK        -0.0824 
     13 C13        29.9960   23.8517    3.4245 C.ar      12 UNK        -0.0762 
     14 C14        30.6645   23.1045    2.4495 C.ar      12 UNK        -0.0782 
     15 C15        28.8471   23.2248    4.2040 C.3       12 UNK         0.0230 
     16 S16        27.2386   23.4805    3.3865 S.3       12 UNK        -0.2608 
     17 C17        26.8968   25.2250    3.7940 C.3       12 UNK        -0.0989 
     18 CA         27.0261   26.1340    2.5431 C.3       5 UNK         0.0716 
     19 N          25.9750   25.9186    1.5405 N.am      5 UNK        -0.4135 
     20 C          24.6675   26.1918    1.6744 C.2       4 UNK         0.5031 
     21 O          24.1399   26.5454    2.7295 O.2       4 UNK        -0.5229 
     22 CA         23.7945   26.0878    0.4158 C.3       4 UNK         0.0329 
     23 CB         23.7888   27.4256   -0.3446 C.3       4 UNK        -0.2001 
     24 N          24.2376   25.0211   -0.4829 N.am      4 UNK        -0.4303 
     25 C          23.4251   24.1447   -1.0864 C.2       3 UNK         0.5044 
     26 O          22.1986   24.1434   -0.9702 O.2       3 UNK        -0.5152 
     27 CA         24.0942   23.0826   -1.9742 C.3       3 UNK         0.0319 
     28 CB         24.3844   23.6540   -3.3716 C.3       3 UNK        -0.2001 
     29 N          25.3344   22.5563   -1.4035 N.am      3 UNK        -0.4354 
     30 C          25.4376   21.8326   -0.2816 C.2       2 UNK         0.4964 
     31 O          24.4698   21.4857    0.3957 O.2       2 UNK        -0.5047 
     32 CA         26.8520   21.4259    0.1767 C.3       2 UNK         0.0288 
     33 CB         27.2661   20.0708   -0.4296 C.3       2 UNK        -0.2113 
     34 N          27.8890   22.4490   -0.0319 N.am      2 UNK        -0.4145 
     35 C          28.3817   22.9268   -1.1853 C.2       1 UNK         0.5006 
     36 O          28.0198   22.5529   -2.3043 O.2       1 UNK        -0.5103 
     37 C          27.1509   27.6362    2.8752 C.2       5 UNK         0.5055 
     38 O          27.1448   28.0257    4.0452 O.2       5 UNK        -0.5220 
     39 N          27.2357   28.4539    1.8154 N.am      6 UNK        -0.4450 
     40 CA         27.4258   29.9026    1.8811 C.3       6 UNK         0.0367 
     41 CB         27.2486   30.4916    0.4718 C.3       6 UNK        -0.1929 
     42 C          28.8062   30.2703    2.4510 C.2       6 UNK         0.5070 
     43 O          29.7654   29.5151    2.2729 O.2       6 UNK        -0.5237 
     44 N          28.8795   31.4304    3.1143 N.am      7 UNK        -0.4739 
     45 CA         30.1042   31.9533    3.7213 C.3       7 UNK         0.0276 
     46 CB         29.7582   33.1569    4.6124 C.3       7 UNK        -0.1927 
     47 C          31.1580   32.3416    2.6699 C.2       7 UNK         0.5013 
     48 O          30.8009   32.8427    1.6002 O.2       7 UNK        -0.5193 
     49 N          32.4323   32.1309    3.0100 N.am      8 UNK        -0.4253 
     50 CA         33.5849   32.4122    2.1610 C.3       8 UNK         0.0242 
     51 CB         33.7726   31.2928    1.1163 C.3       8 UNK        -0.2000 
     52 C          34.8088   32.5819    3.0641 C.2       8 UNK         0.4948 
     53 O          35.4961   31.5989    3.3515 O.2       8 UNK        -0.5275 
     54 N          35.0337   33.8215    3.5236 N.am      9 UNK        -0.4246 
     55 CA         36.1170   34.2486    4.4173 C.3       9 UNK         0.0261 
     56 CB         37.4807   34.1942    3.6895 C.3       9 UNK        -0.1959 
     57 C          36.0869   33.4782    5.7507 C.2       9 UNK         0.5033 
     58 O          35.2438   33.7803    6.5965 O.2       9 UNK        -0.5390 
     59 N          36.9868   32.4987    5.9091 N.am      10 UNK        -0.4215 
     60 CA         37.0460   31.5963    7.0598 C.3       10 UNK         0.0240 
     61 CB         38.4099   30.8866    7.0754 C.3       10 UNK        -0.1982 
     62 C          35.9023   30.5651    7.0872 C.2       10 UNK         0.4970 
     63 O          35.5511   30.1017    8.1732 O.2       10 UNK        -0.4916 
     64 N          35.3516   30.2140    5.9165 N.am      11 UNK        -0.4279 
     65 CA         34.1951   29.3201    5.7842 C.3       11 UNK         0.1003 
     66 C          32.8797   30.0585    6.1383 C.2       11 UNK         0.5709 
     67 N          31.9702   29.4150    6.8561 N.am      11 UNK        -0.7358 
     68 O          32.6649   31.1962    5.7242 O.2       11 UNK        -0.4999 
     69 C69        34.1319   28.6923    4.3657 C.3       12 UNK        -0.0954 
     70 S70        33.4910   26.9872    4.3982 S.3       12 UNK        -0.2268 
     71 C71        32.0102   27.1064    3.3471 C.3       12 UNK         0.0203 
     72 H72        28.5247   27.1959   -3.3986 H         1 UNK         0.0888 
     73 H73        26.7877   26.8914   -3.3175 H         1 UNK         0.0888 
     74 H74        27.5474   27.9834   -2.1570 H         1 UNK         0.0888 
     75 H75        29.7158   25.4906   -2.5790 H         1 UNK         0.3017 
     76 H76        29.4711   24.3808   -0.0283 H         1 UNK         0.0873 
     77 H77        30.8865   23.3200   -2.5254 H         1 UNK         0.0745 
     78 H78        31.5776   24.3700   -1.3212 H         1 UNK         0.0745 
     79 H79        33.2855   23.4138    0.2366 H         1 UNK         0.0705 
     80 H80        33.0231   22.0184    1.2517 H         1 UNK         0.0705 
     81 H81        32.9819   25.3930    1.4892 H         1 UNK         0.1334 
     82 H82        29.9339   25.7297    4.4790 H         1 UNK         0.1417 
     83 H83        30.3598   22.0857    2.2501 H         1 UNK         0.1562 
     84 H84        28.8151   23.6158    5.2222 H         1 UNK         0.0748 
     85 H85        29.0160   22.1516    4.3049 H         1 UNK         0.0748 
     86 H86        27.5802   25.5418    4.5826 H         1 UNK         0.0940 
     87 H87        25.9002   25.2972    4.2308 H         1 UNK         0.0940 
     88 H88        27.9662   25.8789    2.0503 H         1 UNK         0.0703 
     89 H89        26.3245   25.6948    0.6092 H         1 UNK         0.3081 
     90 H90        22.7782   25.8846    0.7604 H         1 UNK         0.0719 
     91 H91        23.4800   28.2454    0.3056 H         1 UNK         0.0809 
     92 H92        24.7769   27.6714   -0.7361 H         1 UNK         0.0809 
     93 H93        23.0942   27.3987   -1.1843 H         1 UNK         0.0809 
     94 H94        25.2337   24.9683   -0.6738 H         1 UNK         0.2990 
     95 H95        23.3962   22.2496   -2.0813 H         1 UNK         0.0690 
     96 H96        25.1062   24.4712   -3.3319 H         1 UNK         0.0788 
     97 H97        23.4747   24.0428   -3.8314 H         1 UNK         0.0788 
     98 H98        24.7822   22.8884   -4.0379 H         1 UNK         0.0788 
     99 H99        26.1958   22.7448   -1.9096 H         1 UNK         0.2993 
    100 H100       26.7922   21.2902    1.2579 H         1 UNK         0.0949 
    101 H101       27.3185   20.1074   -1.5181 H         1 UNK         0.0767 
    102 H102       28.2399   19.7521   -0.0576 H         1 UNK         0.0767 
    103 H103       26.5476   19.2930   -0.1674 H         1 UNK         0.0767 
    104 H104       28.2291   22.8668    0.8234 H         1 UNK         0.3013 
    105 H105       27.2559   28.0412    0.8953 H         1 UNK         0.3121 
    106 H106       26.6542   30.3136    2.5357 H         1 UNK         0.0774 
    107 H107       27.3524   31.5774    0.4865 H         1 UNK         0.0815 
    108 H108       27.9950   30.1047   -0.2234 H         1 UNK         0.0815 
    109 H109       26.2616   30.2672    0.0669 H         1 UNK         0.0815 
    110 H110       28.0571   32.0128    3.1787 H         1 UNK         0.2987 
    111 H111       30.5112   31.1592    4.3492 H         1 UNK         0.0949 
    112 H112       29.0437   32.8848    5.3895 H         1 UNK         0.0806 
    113 H113       30.6494   33.5365    5.1145 H         1 UNK         0.0806 
    114 H114       29.3334   33.9788    4.0346 H         1 UNK         0.0806 
    115 H115       32.6383   31.7794    3.9443 H         1 UNK         0.3010 
    116 H116       33.4219   33.3522    1.6289 H         1 UNK         0.0829 
    117 H117       32.9208   31.2341    0.4387 H         1 UNK         0.0813 
    118 H118       34.6588   31.4751    0.5073 H         1 UNK         0.0813 
    119 H119       33.8938   30.3149    1.5820 H         1 UNK         0.0813 
    120 H120       34.3739   34.5451    3.2726 H         1 UNK         0.3038 
    121 H121       35.9226   35.2932    4.6659 H         1 UNK         0.0769 
    122 H122       37.4873   34.8646    2.8300 H         1 UNK         0.0811 
    123 H123       38.2908   34.5137    4.3467 H         1 UNK         0.0811 
    124 H124       37.7230   33.1962    3.3231 H         1 UNK         0.0811 
    125 H125       37.6164   32.3064    5.1431 H         1 UNK         0.3204 
    126 H126       36.9652   32.1980    7.9678 H         1 UNK         0.0748 
    127 H127       39.2299   31.6030    7.1325 H         1 UNK         0.0771 
    128 H128       38.4971   30.2279    7.9407 H         1 UNK         0.0771 
    129 H129       38.5581   30.2751    6.1843 H         1 UNK         0.0771 
    130 H130       35.6354   30.6926    5.0664 H         1 UNK         0.2980 
    131 H131       34.3394   28.5154    6.5086 H         1 UNK         0.0545 
    132 H132       32.1345   28.4748    7.1800 H         1 UNK         0.3459 
    133 H133       31.1070   29.8806    7.0855 H         1 UNK         0.3459 
    134 H134       33.5522   29.3072    3.6755 H         1 UNK         0.0616 
    135 H135       35.1316   28.6321    3.9324 H         1 UNK         0.0616 
    136 H136       32.2495   27.6436    2.4278 H         1 UNK         0.0634 
    137 H137       31.2447   27.6902    3.8610 H         1 UNK         0.0634 
@<TRIPOS>BOND
     1    1    2 1    
     2    1   72 1    
     3    1   73 1    
     4    1   74 1    
     5    2    3 2    
     6    2    4 am   BACKBONE|DICT|INTERRES
     7    4    5 1    
     8    4   75 1    
     9    5    6 1    
    10    5   35 1    
    11    5   76 1    
    12    6    7 1    
    13    6   77 1    
    14    6   78 1    
    15    7    8 1    
    16    8    9 1    
    17    8   79 1    
    18    8   80 1    
    19    9   10 ar   
    20    9   14 ar   
    21   10   11 ar   
    22   10   81 1    
    23   11   12 ar   
    24   11   71 1    
    25   12   13 ar   
    26   12   82 1    
    27   13   14 ar   
    28   13   15 1    
    29   14   83 1    
    30   15   16 1    
    31   15   84 1    
    32   15   85 1    
    33   16   17 1    
    34   17   18 1    
    35   17   86 1    
    36   17   87 1    
    37   18   19 1    
    38   18   37 1    
    39   18   88 1    
    40   19   20 am   BACKBONE|DICT|INTERRES
    41   19   89 1    
    42   20   21 2    
    43   20   22 1    
    44   22   23 1    
    45   22   24 1    
    46   22   90 1    
    47   23   91 1    
    48   23   92 1    
    49   23   93 1    
    50   24   25 am   BACKBONE|DICT|INTERRES
    51   24   94 1    
    52   25   26 2    
    53   25   27 1    
    54   27   28 1    
    55   27   29 1    
    56   27   95 1    
    57   28   96 1    
    58   28   97 1    
    59   28   98 1    
    60   29   30 am   BACKBONE|DICT|INTERRES
    61   29   99 1    
    62   30   31 2    
    63   30   32 1    
    64   32   33 1    
    65   32   34 1    
    66   32  100 1    
    67   33  101 1    
    68   33  102 1    
    69   33  103 1    
    70   34   35 am   BACKBONE|DICT|INTERRES
    71   34  104 1    
    72   35   36 2    
    73   37   38 2    
    74   37   39 am   BACKBONE|DICT|INTERRES
    75   39   40 1    
    76   39  105 1    
    77   40   41 1    
    78   40   42 1    
    79   40  106 1    
    80   41  107 1    
    81   41  108 1    
    82   41  109 1    
    83   42   43 2    
    84   42   44 am   BACKBONE|DICT|INTERRES
    85   44   45 1    
    86   44  110 1    
    87   45   46 1    
    88   45   47 1    
    89   45  111 1    
    90   46  112 1    
    91   46  113 1    
    92   46  114 1    
    93   47   48 2    
    94   47   49 am   BACKBONE|DICT|INTERRES
    95   49   50 1    
    96   49  115 1    
    97   50   51 1    
    98   50   52 1    
    99   50  116 1    
   100   51  117 1    
   101   51  118 1    
   102   51  119 1    
   103   52   53 2    
   104   52   54 am   BACKBONE|DICT|INTERRES
   105   54   55 1    
   106   54  120 1    
   107   55   56 1    
   108   55   57 1    
   109   55  121 1    
   110   56  122 1    
   111   56  123 1    
   112   56  124 1    
   113   57   58 2    
   114   57   59 am   BACKBONE|DICT|INTERRES
   115   59   60 1    
   116   59  125 1    
   117   60   61 1    
   118   60   62 1    
   119   60  126 1    
   120   61  127 1    
   121   61  128 1    
   122   61  129 1    
   123   62   63 2    
   124   62   64 am   BACKBONE|DICT|INTERRES
   125   64   65 1    
   126   64  130 1    
   127   65   66 1    
   128   65   69 1    
   129   65  131 1    
   130   66   67 am   BACKBONE|DICT|INTERRES
   131   66   68 2    
   132   67  132 1    
   133   67  133 1    
   134   69   70 1    
   135   69  134 1    
   136   69  135 1    
   137   70   71 1    
   138   71  136 1    
   139   71  137 1    
@<TRIPOS>SUBSTRUCTURE
     1 UNK         1 GROUP             0       ****    0 ROOT    
