@<TRIPOS>MOLECULE
3R136
137   139    1
SMALL
USER_CHARGES


@<TRIPOS>ATOM
      1 CA         34.3917   19.8479   -0.9962 C.3       0 UNK        -0.1979 
      2 C          33.7609   21.1582   -0.5479 C.2       0 UNK         0.4864 
      3 O          34.4780   22.0749   -0.1438 O.2       0 UNK        -0.5359 
      4 N          32.4259   21.2501   -0.6081 N.am      1 UNK        -0.4318 
      5 CA         31.6582   22.4557   -0.2852 C.3       1 UNK         0.0824 
      6 C6         30.1676   22.1121   -0.0312 C.3       12 UNK        -0.0944 
      7 S7         29.2865   23.4121    0.8983 S.3       12 UNK        -0.2672 
      8 C8         29.4576   22.7903    2.5984 C.3       12 UNK         0.0333 
      9 C9         28.8563   23.7614    3.6019 C.ar      12 UNK        -0.0807 
     10 C10        29.5418   24.9333    3.9314 C.ar      12 UNK        -0.0894 
     11 C11        29.0039   25.8345    4.8522 C.ar      12 UNK        -0.0804 
     12 C12        27.7964   25.5321    5.4871 C.ar      12 UNK        -0.0824 
     13 C13        27.0693   24.3930    5.1216 C.ar      12 UNK        -0.0762 
     14 C14        27.6123   23.5034    4.1875 C.ar      12 UNK        -0.0782 
     15 C15        25.6775   24.1481    5.6969 C.3       12 UNK         0.0230 
     16 S16        24.5360   25.5537    5.4275 S.3       12 UNK        -0.2608 
     17 C17        24.4818   25.7046    3.6042 C.3       12 UNK        -0.0989 
     18 CA         25.5462   26.7001    3.0646 C.3       5 UNK         0.0716 
     19 N          26.1231   26.2916    1.7859 N.am      5 UNK        -0.4135 
     20 C          25.5840   26.4105    0.5686 C.2       4 UNK         0.5031 
     21 O          24.4603   26.8627    0.3403 O.2       4 UNK        -0.5229 
     22 CA         26.4867   25.9426   -0.5900 C.3       4 UNK         0.0329 
     23 CB         25.6607   25.3205   -1.7305 C.3       4 UNK        -0.2001 
     24 N          27.3753   26.9684   -1.1570 N.am      4 UNK        -0.4303 
     25 C          28.0754   27.9281   -0.5286 C.2       3 UNK         0.5044 
     26 O          27.9996   28.1886    0.6717 O.2       3 UNK        -0.5152 
     27 CA         29.0949   28.6736   -1.4126 C.3       3 UNK         0.0319 
     28 CB         29.7062   29.9108   -0.7200 C.3       3 UNK        -0.2001 
     29 N          30.1409   27.7535   -1.8864 N.am      3 UNK        -0.4354 
     30 C          30.9700   27.0217   -1.1253 C.2       2 UNK         0.4964 
     31 O          31.0891   27.1325    0.0971 O.2       2 UNK        -0.5047 
     32 CA         31.8149   25.9685   -1.8446 C.3       2 UNK         0.0288 
     33 CB         33.2555   26.4583   -2.0692 C.3       2 UNK        -0.2113 
     34 N          31.8176   24.7916   -0.9860 N.am      2 UNK        -0.4145 
     35 C          31.8218   23.5198   -1.3921 C.2       1 UNK         0.5006 
     36 O          31.9112   23.1741   -2.5740 O.2       1 UNK        -0.5103 
     37 C          25.1844   28.1996    3.1589 C.2       5 UNK         0.5055 
     38 O          24.1869   28.5652    3.7845 O.2       5 UNK        -0.5220 
     39 N          26.0454   29.0443    2.5798 N.am      6 UNK        -0.4450 
     40 CA         26.1438   30.4729    2.8636 C.3       6 UNK         0.0367 
     41 CB         26.2656   31.2377    1.5364 C.3       6 UNK        -0.1929 
     42 C          27.3928   30.6990    3.7293 C.2       6 UNK         0.5070 
     43 O          28.3234   29.8917    3.6910 O.2       6 UNK        -0.5237 
     44 N          27.4189   31.8042    4.4828 N.am      7 UNK        -0.4739 
     45 CA         28.5396   32.1954    5.3462 C.3       7 UNK         0.0276 
     46 CB         28.0127   33.1289    6.4525 C.3       7 UNK        -0.1927 
     47 C          29.6904   32.8254    4.5347 C.2       7 UNK         0.5013 
     48 O          29.9930   34.0081    4.7068 O.2       7 UNK        -0.5193 
     49 N          30.2876   32.0334    3.6398 N.am      8 UNK        -0.4253 
     50 CA         31.3517   32.4236    2.7202 C.3       8 UNK         0.0242 
     51 CB         30.7386   33.1583    1.5103 C.3       8 UNK        -0.2000 
     52 C          32.1255   31.1752    2.2772 C.2       8 UNK         0.4948 
     53 O          31.7215   30.0565    2.6059 O.2       8 UNK        -0.5275 
     54 N          33.2171   31.4024    1.5297 N.am      9 UNK        -0.4246 
     55 CA         34.0867   30.4185    0.8710 C.3       9 UNK         0.0261 
     56 CB         33.4146   29.8796   -0.4068 C.3       9 UNK        -0.1959 
     57 C          34.5710   29.3128    1.8247 C.2       9 UNK         0.5033 
     58 O          35.5174   29.5530    2.5760 O.2       9 UNK        -0.5390 
     59 N          33.9012   28.1502    1.8178 N.am      10 UNK        -0.4215 
     60 CA         34.1723   27.0193    2.7113 C.3       10 UNK         0.0240 
     61 CB         33.2975   25.8253    2.2987 C.3       10 UNK        -0.1982 
     62 C          33.9916   27.3407    4.2086 C.2       10 UNK         0.4970 
     63 O          34.6467   26.7000    5.0318 O.2       10 UNK        -0.4916 
     64 N          33.1475   28.3303    4.5284 N.am      11 UNK        -0.4279 
     65 CA         32.9798   28.8969    5.8765 C.3       11 UNK         0.1003 
     66 C          33.5835   30.3276    6.0010 C.2       11 UNK         0.5709 
     67 N          34.4094   30.7936    5.0702 N.am      11 UNK        -0.7358 
     68 O          33.3180   31.0301    6.9735 O.2       11 UNK        -0.4999 
     69 C69        31.5027   28.8387    6.3494 C.3       12 UNK        -0.0954 
     70 S70        30.8659   27.1307    6.4500 S.3       12 UNK        -0.2268 
     71 C71        29.6755   27.1768    5.0851 C.3       12 UNK         0.0203 
     72 H72        35.0687   20.0245   -1.8316 H         1 UNK         0.0888 
     73 H73        34.9643   19.4084   -0.1799 H         1 UNK         0.0888 
     74 H74        33.6432   19.1223   -1.3141 H         1 UNK         0.0888 
     75 H75        31.8935   20.4775   -0.9818 H         1 UNK         0.3017 
     76 H76        32.0779   22.8594    0.6396 H         1 UNK         0.0873 
     77 H77        29.6403   21.9321   -0.9704 H         1 UNK         0.0745 
     78 H78        30.0865   21.1808    0.5321 H         1 UNK         0.0745 
     79 H79        28.9795   21.8125    2.6769 H         1 UNK         0.0705 
     80 H80        30.5141   22.6393    2.8260 H         1 UNK         0.0705 
     81 H81        30.4805   25.1580    3.4466 H         1 UNK         0.1334 
     82 H82        27.3747   26.2313    6.1966 H         1 UNK         0.1417 
     83 H83        27.0624   22.6155    3.9058 H         1 UNK         0.1562 
     84 H84        25.7671   23.9684    6.7690 H         1 UNK         0.0748 
     85 H85        25.2316   23.2479    5.2709 H         1 UNK         0.0748 
     86 H86        23.4784   25.9982    3.2907 H         1 UNK         0.0940 
     87 H87        24.6408   24.7105    3.1831 H         1 UNK         0.0940 
     88 H88        26.4081   26.6452    3.7177 H         1 UNK         0.0703 
     89 H89        27.0776   25.9628    1.8395 H         1 UNK         0.3081 
     90 H90        27.1331   25.1552   -0.1997 H         1 UNK         0.0719 
     91 H91        24.9860   24.5519   -1.3506 H         1 UNK         0.0809 
     92 H92        26.3009   24.8457   -2.4742 H         1 UNK         0.0809 
     93 H93        25.0498   26.0674   -2.2393 H         1 UNK         0.0809 
     94 H94        27.5381   26.8763   -2.1487 H         1 UNK         0.2990 
     95 H95        28.5593   29.0250   -2.2959 H         1 UNK         0.0690 
     96 H96        30.4630   30.3849   -1.3442 H         1 UNK         0.0788 
     97 H97        30.1646   29.6590    0.2372 H         1 UNK         0.0788 
     98 H98        28.9392   30.6582   -0.5205 H         1 UNK         0.0788 
     99 H99        30.1494   27.5912   -2.8841 H         1 UNK         0.2993 
    100 H100       31.3522   25.7278   -2.8044 H         1 UNK         0.0949 
    101 H101       33.8515   25.7050   -2.5847 H         1 UNK         0.0767 
    102 H102       33.2712   27.3610   -2.6811 H         1 UNK         0.0767 
    103 H103       33.7539   26.6884   -1.1266 H         1 UNK         0.0767 
    104 H104       31.6529   25.0040   -0.0095 H         1 UNK         0.3013 
    105 H105       26.8470   28.6576    2.0811 H         1 UNK         0.3121 
    106 H106       25.2637   30.8260    3.4049 H         1 UNK         0.0774 
    107 H107       26.3272   32.3133    1.7058 H         1 UNK         0.0815 
    108 H108       27.1585   30.9417    0.9860 H         1 UNK         0.0815 
    109 H109       25.4028   31.0571    0.8953 H         1 UNK         0.0815 
    110 H110       26.6398   32.4459    4.4374 H         1 UNK         0.2987 
    111 H111       28.9410   31.3032    5.8330 H         1 UNK         0.0949 
    112 H112       27.5830   34.0432    6.0413 H         1 UNK         0.0806 
    113 H113       27.2470   32.6387    7.0539 H         1 UNK         0.0806 
    114 H114       28.8155   33.4219    7.1306 H         1 UNK         0.0806 
    115 H115       29.9815   31.0655    3.5545 H         1 UNK         0.3010 
    116 H116       32.0489   33.0834    3.2411 H         1 UNK         0.0829 
    117 H117       30.1999   34.0541    1.8196 H         1 UNK         0.0813 
    118 H118       31.5043   33.4772    0.8026 H         1 UNK         0.0813 
    119 H119       30.0386   32.5201    0.9697 H         1 UNK         0.0813 
    120 H120       33.4768   32.3658    1.3700 H         1 UNK         0.3038 
    121 H121       34.9812   30.9605    0.5594 H         1 UNK         0.0769 
    122 H122       32.4709   29.3847   -0.1902 H         1 UNK         0.0811 
    123 H123       34.0594   29.1646   -0.9184 H         1 UNK         0.0811 
    124 H124       33.2074   30.6852   -1.1110 H         1 UNK         0.0811 
    125 H125       33.0782   28.0753    1.2323 H         1 UNK         0.3204 
    126 H126       35.2178   26.7372    2.5712 H         1 UNK         0.0748 
    127 H127       33.4445   24.9764    2.9680 H         1 UNK         0.0771 
    128 H128       32.2390   26.0836    2.3208 H         1 UNK         0.0771 
    129 H129       33.5426   25.4886    1.2915 H         1 UNK         0.0771 
    130 H130       32.6548   28.8201    3.7854 H         1 UNK         0.2980 
    131 H131       33.5571   28.3061    6.5892 H         1 UNK         0.0545 
    132 H132       34.7987   31.7152    5.1860 H         1 UNK         0.3459 
    133 H133       34.6982   30.2228    4.2837 H         1 UNK         0.3459 
    134 H134       31.3999   29.2712    7.3461 H         1 UNK         0.0616 
    135 H135       30.8710   29.4401    5.6926 H         1 UNK         0.0616 
    136 H136       30.1782   27.5069    4.1737 H         1 UNK         0.0634 
    137 H137       28.9185   27.9296    5.3076 H         1 UNK         0.0634 
@<TRIPOS>BOND
     1    1    2 1    
     2    1   72 1    
     3    1   73 1    
     4    1   74 1    
     5    2    3 2    
     6    2    4 am   BACKBONE|DICT|INTERRES
     7    4    5 1    
     8    4   75 1    
     9    5    6 1    
    10    5   35 1    
    11    5   76 1    
    12    6    7 1    
    13    6   77 1    
    14    6   78 1    
    15    7    8 1    
    16    8    9 1    
    17    8   79 1    
    18    8   80 1    
    19    9   10 ar   
    20    9   14 ar   
    21   10   11 ar   
    22   10   81 1    
    23   11   12 ar   
    24   11   71 1    
    25   12   13 ar   
    26   12   82 1    
    27   13   14 ar   
    28   13   15 1    
    29   14   83 1    
    30   15   16 1    
    31   15   84 1    
    32   15   85 1    
    33   16   17 1    
    34   17   18 1    
    35   17   86 1    
    36   17   87 1    
    37   18   19 1    
    38   18   37 1    
    39   18   88 1    
    40   19   20 am   BACKBONE|DICT|INTERRES
    41   19   89 1    
    42   20   21 2    
    43   20   22 1    
    44   22   23 1    
    45   22   24 1    
    46   22   90 1    
    47   23   91 1    
    48   23   92 1    
    49   23   93 1    
    50   24   25 am   BACKBONE|DICT|INTERRES
    51   24   94 1    
    52   25   26 2    
    53   25   27 1    
    54   27   28 1    
    55   27   29 1    
    56   27   95 1    
    57   28   96 1    
    58   28   97 1    
    59   28   98 1    
    60   29   30 am   BACKBONE|DICT|INTERRES
    61   29   99 1    
    62   30   31 2    
    63   30   32 1    
    64   32   33 1    
    65   32   34 1    
    66   32  100 1    
    67   33  101 1    
    68   33  102 1    
    69   33  103 1    
    70   34   35 am   BACKBONE|DICT|INTERRES
    71   34  104 1    
    72   35   36 2    
    73   37   38 2    
    74   37   39 am   BACKBONE|DICT|INTERRES
    75   39   40 1    
    76   39  105 1    
    77   40   41 1    
    78   40   42 1    
    79   40  106 1    
    80   41  107 1    
    81   41  108 1    
    82   41  109 1    
    83   42   43 2    
    84   42   44 am   BACKBONE|DICT|INTERRES
    85   44   45 1    
    86   44  110 1    
    87   45   46 1    
    88   45   47 1    
    89   45  111 1    
    90   46  112 1    
    91   46  113 1    
    92   46  114 1    
    93   47   48 2    
    94   47   49 am   BACKBONE|DICT|INTERRES
    95   49   50 1    
    96   49  115 1    
    97   50   51 1    
    98   50   52 1    
    99   50  116 1    
   100   51  117 1    
   101   51  118 1    
   102   51  119 1    
   103   52   53 2    
   104   52   54 am   BACKBONE|DICT|INTERRES
   105   54   55 1    
   106   54  120 1    
   107   55   56 1    
   108   55   57 1    
   109   55  121 1    
   110   56  122 1    
   111   56  123 1    
   112   56  124 1    
   113   57   58 2    
   114   57   59 am   BACKBONE|DICT|INTERRES
   115   59   60 1    
   116   59  125 1    
   117   60   61 1    
   118   60   62 1    
   119   60  126 1    
   120   61  127 1    
   121   61  128 1    
   122   61  129 1    
   123   62   63 2    
   124   62   64 am   BACKBONE|DICT|INTERRES
   125   64   65 1    
   126   64  130 1    
   127   65   66 1    
   128   65   69 1    
   129   65  131 1    
   130   66   67 am   BACKBONE|DICT|INTERRES
   131   66   68 2    
   132   67  132 1    
   133   67  133 1    
   134   69   70 1    
   135   69  134 1    
   136   69  135 1    
   137   70   71 1    
   138   71  136 1    
   139   71  137 1    
@<TRIPOS>SUBSTRUCTURE
     1 UNK         1 GROUP             0       ****    0 ROOT    
