@<TRIPOS>MOLECULE
3R136
137   139    1
SMALL
USER_CHARGES


@<TRIPOS>ATOM
      1 CA         30.7737   22.4522   -3.8413 C.3       0 UNK        -0.1979 
      2 C          30.0175   23.4076   -2.9308 C.2       0 UNK         0.4864 
      3 O          28.9028   23.8131   -3.2625 O.2       0 UNK        -0.5359 
      4 N          30.6080   23.7581   -1.7784 N.am      1 UNK        -0.4318 
      5 CA         30.0509   24.6727   -0.7700 C.3       1 UNK         0.0824 
      6 C6         31.0493   24.9396    0.3856 C.3       12 UNK        -0.0944 
      7 S7         31.5502   23.4209    1.2738 S.3       12 UNK        -0.2672 
      8 C8         32.0060   24.0653    2.9143 C.3       12 UNK         0.0333 
      9 C9         30.8444   24.6911    3.6811 C.ar      12 UNK        -0.0807 
     10 C10        30.9848   25.9777    4.2087 C.ar      12 UNK        -0.0894 
     11 C11        29.9740   26.5455    4.9882 C.ar      12 UNK        -0.0804 
     12 C12        28.8093   25.8159    5.2346 C.ar      12 UNK        -0.0824 
     13 C13        28.6322   24.5445    4.6788 C.ar      12 UNK        -0.0762 
     14 C14        29.6583   23.9820    3.9102 C.ar      12 UNK        -0.0782 
     15 C15        27.3364   23.7801    4.9244 C.3       12 UNK         0.0230 
     16 S16        26.0913   24.0786    3.6227 S.3       12 UNK        -0.2608 
     17 C17        25.7322   25.8558    3.8288 C.3       12 UNK        -0.0989 
     18 CA         26.5173   26.7063    2.7920 C.3       5 UNK         0.0716 
     19 N          26.0146   26.5608    1.4196 N.am      5 UNK        -0.4135 
     20 C          24.8638   27.0444    0.9278 C.2       4 UNK         0.5031 
     21 O          24.0111   27.6152    1.6088 O.2       4 UNK        -0.5229 
     22 CA         24.6262   26.9055   -0.5826 C.3       4 UNK         0.0329 
     23 CB         25.3181   28.0514   -1.3415 C.3       4 UNK        -0.2001 
     24 N          25.0814   25.6198   -1.1199 N.am      4 UNK        -0.4303 
     25 C          24.3649   24.8531   -1.9564 C.2       3 UNK         0.5044 
     26 O          23.2330   25.1418   -2.3481 O.2       3 UNK        -0.5152 
     27 CA         25.0059   23.5477   -2.4696 C.3       3 UNK         0.0319 
     28 CB         25.5024   23.7276   -3.9132 C.3       3 UNK        -0.2001 
     29 N          26.1144   23.0709   -1.6417 N.am      3 UNK        -0.4354 
     30 C          25.9773   22.5629   -0.4078 C.2       2 UNK         0.4964 
     31 O          24.8858   22.3520    0.1213 O.2       2 UNK        -0.5047 
     32 CA         27.2618   22.2489    0.3828 C.3       2 UNK         0.0288 
     33 CB         27.5086   20.7324    0.4303 C.3       2 UNK        -0.2113 
     34 N          28.4742   22.9090   -0.1090 N.am      2 UNK        -0.4145 
     35 C          28.6748   24.2304   -0.2299 C.2       1 UNK         0.5006 
     36 O          27.8201   25.0827    0.0170 O.2       1 UNK        -0.5103 
     37 C          26.6821   28.1914    3.1894 C.2       5 UNK         0.5055 
     38 O          26.3056   28.5925    4.2922 O.2       5 UNK        -0.5220 
     39 N          27.2491   28.9799    2.2667 N.am      6 UNK        -0.4450 
     40 CA         27.4651   30.4209    2.3931 C.3       6 UNK         0.0367 
     41 CB         26.3235   31.1737    1.6826 C.3       6 UNK        -0.1929 
     42 C          28.8576   30.7877    1.8559 C.2       6 UNK         0.5070 
     43 O          28.9998   31.7489    1.1000 O.2       6 UNK        -0.5237 
     44 N          29.8671   29.9960    2.2459 N.am      7 UNK        -0.4739 
     45 CA         31.2667   30.1472    1.8256 C.3       7 UNK         0.0276 
     46 CB         32.0193   28.8391    2.1174 C.3       7 UNK        -0.1927 
     47 C          31.9958   31.3486    2.4620 C.2       7 UNK         0.5013 
     48 O          33.0869   31.6917    2.0032 O.2       7 UNK        -0.5193 
     49 N          31.3982   31.9578    3.4993 N.am      8 UNK        -0.4253 
     50 CA         31.8576   33.1542    4.2158 C.3       8 UNK         0.0242 
     51 CB         31.6654   34.4089    3.3330 C.3       8 UNK        -0.2000 
     52 C          33.2878   32.9815    4.7597 C.2       8 UNK         0.4948 
     53 O          33.4921   32.1556    5.6488 O.2       8 UNK        -0.5275 
     54 N          34.2573   33.7156    4.1973 N.am      9 UNK        -0.4246 
     55 CA         35.6811   33.6376    4.5384 C.3       9 UNK         0.0261 
     56 CB         36.4418   34.7359    3.7776 C.3       9 UNK        -0.1959 
     57 C          36.3237   32.2603    4.2793 C.2       9 UNK         0.5033 
     58 O          37.3287   31.9466    4.9187 O.2       9 UNK        -0.5390 
     59 N          35.7437   31.4638    3.3693 N.am      10 UNK        -0.4215 
     60 CA         36.1807   30.0993    3.0669 C.3       10 UNK         0.0240 
     61 CB         36.0048   29.8387    1.5603 C.3       10 UNK        -0.1982 
     62 C          35.4650   29.0294    3.9164 C.2       10 UNK         0.4970 
     63 O          35.7816   27.8495    3.7580 O.2       10 UNK        -0.4916 
     64 N          34.5239   29.4242    4.7884 N.am      11 UNK        -0.4279 
     65 CA         33.8485   28.5244    5.7355 C.3       11 UNK         0.1003 
     66 C          34.8074   28.0183    6.8503 C.2       11 UNK         0.5709 
     67 N          34.6460   26.7805    7.2980 N.am      11 UNK        -0.7358 
     68 O          35.6748   28.7457    7.3311 O.2       11 UNK        -0.4999 
     69 C69        32.5748   29.1903    6.3210 C.3       12 UNK        -0.0954 
     70 S70        31.3421   27.9830    6.9198 S.3       12 UNK        -0.2268 
     71 C71        30.1333   27.9470    5.5585 C.3       12 UNK         0.0203 
     72 H72        30.9491   22.9189   -4.8102 H         1 UNK         0.0888 
     73 H73        31.7385   22.1667   -3.4224 H         1 UNK         0.0888 
     74 H74        30.1906   21.5455   -4.0001 H         1 UNK         0.0888 
     75 H75        31.5174   23.3784   -1.5544 H         1 UNK         0.3017 
     76 H76        29.8821   25.6234   -1.2803 H         1 UNK         0.0873 
     77 H77        30.6221   25.6548    1.0909 H         1 UNK         0.0745 
     78 H78        31.9497   25.4155   -0.0059 H         1 UNK         0.0745 
     79 H79        32.4099   23.2449    3.5087 H         1 UNK         0.0705 
     80 H80        32.8210   24.7802    2.7885 H         1 UNK         0.0705 
     81 H81        31.8958   26.5292    4.0328 H         1 UNK         0.1334 
     82 H82        28.0308   26.2486    5.8474 H         1 UNK         0.1417 
     83 H83        29.5382   22.9902    3.4955 H         1 UNK         0.1562 
     84 H84        26.9163   24.0451    5.8959 H         1 UNK         0.0748 
     85 H85        27.5444   22.7100    4.9690 H         1 UNK         0.0748 
     86 H86        25.9680   26.1374    4.8551 H         1 UNK         0.0940 
     87 H87        24.6581   26.0155    3.7257 H         1 UNK         0.0940 
     88 H88        27.5388   26.3254    2.7571 H         1 UNK         0.0703 
     89 H89        26.6564   26.0724    0.7960 H         1 UNK         0.3081 
     90 H90        23.5490   27.0092   -0.7298 H         1 UNK         0.0719 
     91 H91        25.0590   28.0352   -2.4003 H         1 UNK         0.0809 
     92 H92        26.4043   27.9915   -1.2628 H         1 UNK         0.0809 
     93 H93        25.0131   29.0227   -0.9490 H         1 UNK         0.0809 
     94 H94        26.0009   25.2986   -0.8371 H         1 UNK         0.2990 
     95 H95        24.2288   22.7804   -2.4702 H         1 UNK         0.0690 
     96 H96        25.9106   22.7989   -4.3125 H         1 UNK         0.0788 
     97 H97        26.2795   24.4905   -3.9793 H         1 UNK         0.0788 
     98 H98        24.6884   24.0332   -4.5720 H         1 UNK         0.0788 
     99 H99        27.0472   23.2130   -2.0109 H         1 UNK         0.2993 
    100 H100       27.0998   22.5986    1.4023 H         1 UNK         0.0949 
    101 H101       28.3535   20.4876    1.0746 H         1 UNK         0.0767 
    102 H102       26.6392   20.2065    0.8278 H         1 UNK         0.0767 
    103 H103       27.7110   20.3260   -0.5615 H         1 UNK         0.0767 
    104 H104       29.2471   22.3042   -0.3462 H         1 UNK         0.3013 
    105 H105       27.5518   28.5649    1.3960 H         1 UNK         0.3121 
    106 H106       27.4592   30.7085    3.4467 H         1 UNK         0.0774 
    107 H107       26.4351   32.2529    1.7943 H         1 UNK         0.0815 
    108 H108       26.3007   30.9544    0.6145 H         1 UNK         0.0815 
    109 H109       25.3529   30.9043    2.0996 H         1 UNK         0.0815 
    110 H110       29.6539   29.2173    2.8513 H         1 UNK         0.2987 
    111 H111       31.2750   30.3079    0.7451 H         1 UNK         0.0949 
    112 H112       32.1679   28.6909    3.1855 H         1 UNK         0.0806 
    113 H113       31.4897   27.9724    1.7222 H         1 UNK         0.0806 
    114 H114       33.0055   28.8452    1.6551 H         1 UNK         0.0806 
    115 H115       30.5226   31.5694    3.8169 H         1 UNK         0.3010 
    116 H116       31.2137   33.2632    5.0898 H         1 UNK         0.0829 
    117 H117       30.6166   34.5340    3.0627 H         1 UNK         0.0813 
    118 H118       31.9664   35.3153    3.8603 H         1 UNK         0.0813 
    119 H119       32.2340   34.3553    2.4038 H         1 UNK         0.0813 
    120 H120       34.0027   34.3468    3.4513 H         1 UNK         0.3038 
    121 H121       35.7717   33.8373    5.6083 H         1 UNK         0.0769 
    122 H122       37.5024   34.7250    4.0332 H         1 UNK         0.0811 
    123 H123       36.0622   35.7276    4.0248 H         1 UNK         0.0811 
    124 H124       36.3661   34.6050    2.6973 H         1 UNK         0.0811 
    125 H125       34.9013   31.7811    2.8960 H         1 UNK         0.3204 
    126 H126       37.2457   30.0025    3.2879 H         1 UNK         0.0748 
    127 H127       36.3119   28.8264    1.2939 H         1 UNK         0.0771 
    128 H128       34.9710   29.9618    1.2416 H         1 UNK         0.0771 
    129 H129       36.6148   30.5236    0.9711 H         1 UNK         0.0771 
    130 H130       34.3468   30.4133    4.9211 H         1 UNK         0.2980 
    131 H131       33.5356   27.6559    5.1547 H         1 UNK         0.0545 
    132 H132       35.2512   26.4399    8.0283 H         1 UNK         0.3459 
    133 H133       33.9142   26.1896    6.9358 H         1 UNK         0.3459 
    134 H134       32.1009   29.8263    5.5732 H         1 UNK         0.0616 
    135 H135       32.8311   29.8619    7.1427 H         1 UNK         0.0616 
    136 H136       30.4223   28.6263    4.7592 H         1 UNK         0.0634 
    137 H137       29.1791   28.3198    5.9346 H         1 UNK         0.0634 
@<TRIPOS>BOND
     1    1    2 1    
     2    1   72 1    
     3    1   73 1    
     4    1   74 1    
     5    2    3 2    
     6    2    4 am   BACKBONE|DICT|INTERRES
     7    4    5 1    
     8    4   75 1    
     9    5    6 1    
    10    5   35 1    
    11    5   76 1    
    12    6    7 1    
    13    6   77 1    
    14    6   78 1    
    15    7    8 1    
    16    8    9 1    
    17    8   79 1    
    18    8   80 1    
    19    9   10 ar   
    20    9   14 ar   
    21   10   11 ar   
    22   10   81 1    
    23   11   12 ar   
    24   11   71 1    
    25   12   13 ar   
    26   12   82 1    
    27   13   14 ar   
    28   13   15 1    
    29   14   83 1    
    30   15   16 1    
    31   15   84 1    
    32   15   85 1    
    33   16   17 1    
    34   17   18 1    
    35   17   86 1    
    36   17   87 1    
    37   18   19 1    
    38   18   37 1    
    39   18   88 1    
    40   19   20 am   BACKBONE|DICT|INTERRES
    41   19   89 1    
    42   20   21 2    
    43   20   22 1    
    44   22   23 1    
    45   22   24 1    
    46   22   90 1    
    47   23   91 1    
    48   23   92 1    
    49   23   93 1    
    50   24   25 am   BACKBONE|DICT|INTERRES
    51   24   94 1    
    52   25   26 2    
    53   25   27 1    
    54   27   28 1    
    55   27   29 1    
    56   27   95 1    
    57   28   96 1    
    58   28   97 1    
    59   28   98 1    
    60   29   30 am   BACKBONE|DICT|INTERRES
    61   29   99 1    
    62   30   31 2    
    63   30   32 1    
    64   32   33 1    
    65   32   34 1    
    66   32  100 1    
    67   33  101 1    
    68   33  102 1    
    69   33  103 1    
    70   34   35 am   BACKBONE|DICT|INTERRES
    71   34  104 1    
    72   35   36 2    
    73   37   38 2    
    74   37   39 am   BACKBONE|DICT|INTERRES
    75   39   40 1    
    76   39  105 1    
    77   40   41 1    
    78   40   42 1    
    79   40  106 1    
    80   41  107 1    
    81   41  108 1    
    82   41  109 1    
    83   42   43 2    
    84   42   44 am   BACKBONE|DICT|INTERRES
    85   44   45 1    
    86   44  110 1    
    87   45   46 1    
    88   45   47 1    
    89   45  111 1    
    90   46  112 1    
    91   46  113 1    
    92   46  114 1    
    93   47   48 2    
    94   47   49 am   BACKBONE|DICT|INTERRES
    95   49   50 1    
    96   49  115 1    
    97   50   51 1    
    98   50   52 1    
    99   50  116 1    
   100   51  117 1    
   101   51  118 1    
   102   51  119 1    
   103   52   53 2    
   104   52   54 am   BACKBONE|DICT|INTERRES
   105   54   55 1    
   106   54  120 1    
   107   55   56 1    
   108   55   57 1    
   109   55  121 1    
   110   56  122 1    
   111   56  123 1    
   112   56  124 1    
   113   57   58 2    
   114   57   59 am   BACKBONE|DICT|INTERRES
   115   59   60 1    
   116   59  125 1    
   117   60   61 1    
   118   60   62 1    
   119   60  126 1    
   120   61  127 1    
   121   61  128 1    
   122   61  129 1    
   123   62   63 2    
   124   62   64 am   BACKBONE|DICT|INTERRES
   125   64   65 1    
   126   64  130 1    
   127   65   66 1    
   128   65   69 1    
   129   65  131 1    
   130   66   67 am   BACKBONE|DICT|INTERRES
   131   66   68 2    
   132   67  132 1    
   133   67  133 1    
   134   69   70 1    
   135   69  134 1    
   136   69  135 1    
   137   70   71 1    
   138   71  136 1    
   139   71  137 1    
@<TRIPOS>SUBSTRUCTURE
     1 UNK         1 GROUP             0       ****    0 ROOT    
