@<TRIPOS>MOLECULE
3R136
137   139    1
SMALL
USER_CHARGES


@<TRIPOS>ATOM
      1 CA         32.5574   21.5529    4.9980 C.3       0 UNK        -0.1979 
      2 C          31.1249   21.2427    4.5931 C.2       0 UNK         0.4864 
      3 O          30.7464   20.0723    4.5286 O.2       0 UNK        -0.5359 
      4 N          30.3320   22.2808    4.3122 N.am      1 UNK        -0.4318 
      5 CA         28.9350   22.2018    3.8906 C.3       1 UNK         0.0824 
      6 C6         28.7758   21.6879    2.4260 C.3       12 UNK        -0.0944 
      7 S7         29.2775   22.8793    1.1349 S.3       12 UNK        -0.2672 
      8 C8         30.9933   22.3906    0.7741 C.3       12 UNK         0.0333 
      9 C9         31.8219   23.6069    0.3848 C.ar      12 UNK        -0.0807 
     10 C10        32.8560   24.0539    1.2121 C.ar      12 UNK        -0.0894 
     11 C11        33.5894   25.1950    0.8740 C.ar      12 UNK        -0.0804 
     12 C12        33.2730   25.8986   -0.2920 C.ar      12 UNK        -0.0824 
     13 C13        32.2418   25.4657   -1.1309 C.ar      12 UNK        -0.0762 
     14 C14        31.5383   24.3013   -0.7953 C.ar      12 UNK        -0.0782 
     15 C15        31.9123   26.2663   -2.3902 C.3       12 UNK         0.0230 
     16 S16        30.1248   26.3408   -2.7346 S.3       12 UNK        -0.2608 
     17 C17        30.0057   27.6981   -3.9576 C.3       12 UNK        -0.0989 
     18 CA         29.3883   29.0013   -3.3779 C.3       5 UNK         0.0716 
     19 N          28.2482   28.6972   -2.5096 N.am      5 UNK        -0.4135 
     20 C          27.3925   29.5545   -1.9435 C.2       4 UNK         0.5031 
     21 O          27.3665   30.7603   -2.1846 O.2       4 UNK        -0.5229 
     22 CA         26.4682   28.9651   -0.8575 C.3       4 UNK         0.0329 
     23 CB         25.1265   28.5288   -1.4655 C.3       4 UNK        -0.2001 
     24 N          27.0711   27.8341   -0.1323 N.am      4 UNK        -0.4303 
     25 C          28.2169   27.9073    0.5626 C.2       3 UNK         0.5044 
     26 O          28.8481   28.9543    0.7036 O.2       3 UNK        -0.5152 
     27 CA         28.7739   26.5881    1.1274 C.3       3 UNK         0.0319 
     28 CB         30.0554   26.7844    1.9618 C.3       3 UNK        -0.2001 
     29 N          27.8095   25.7862    1.8853 N.am      3 UNK        -0.4354 
     30 C          27.0123   26.1726    2.8941 C.2       2 UNK         0.4964 
     31 O          26.8138   27.3418    3.2194 O.2       2 UNK        -0.5047 
     32 CA         26.3249   25.0488    3.6971 C.3       2 UNK         0.0288 
     33 CB         24.8874   24.8332    3.1966 C.3       2 UNK        -0.2113 
     34 N          27.0474   23.7692    3.6632 N.am      2 UNK        -0.4145 
     35 C          28.2745   23.5700    4.1705 C.2       1 UNK         0.5006 
     36 O          28.8930   24.4274    4.8096 O.2       1 UNK        -0.5103 
     37 C          30.4656   29.8926   -2.7139 C.2       5 UNK         0.5055 
     38 O          31.1699   30.6011   -3.4345 O.2       5 UNK        -0.5220 
     39 N          30.5733   29.8661   -1.3770 N.am      6 UNK        -0.4450 
     40 CA         31.4519   30.7294   -0.5807 C.3       6 UNK         0.0367 
     41 CB         32.1217   29.8820    0.5167 C.3       6 UNK        -0.1929 
     42 C          30.6838   31.9163    0.0370 C.2       6 UNK         0.5070 
     43 O          31.2730   32.6700    0.8113 O.2       6 UNK        -0.5237 
     44 N          29.3912   32.0567   -0.2987 N.am      7 UNK        -0.4739 
     45 CA         28.4206   33.0672    0.1443 C.3       7 UNK         0.0276 
     46 CB         28.9057   34.4959   -0.1802 C.3       7 UNK        -0.1927 
     47 C          27.9524   32.9399    1.6078 C.2       7 UNK         0.5013 
     48 O          27.0701   33.7018    2.0073 O.2       7 UNK        -0.5193 
     49 N          28.4990   31.9902    2.3755 N.am      8 UNK        -0.4253 
     50 CA         28.1632   31.7198    3.7716 C.3       8 UNK         0.0242 
     51 CB         28.6622   32.8595    4.6845 C.3       8 UNK        -0.2000 
     52 C          28.8166   30.4000    4.1860 C.2       8 UNK         0.4948 
     53 O          29.8714   30.0494    3.6520 O.2       8 UNK        -0.5275 
     54 N          28.2367   29.7361    5.1946 N.am      9 UNK        -0.4246 
     55 CA         28.6959   28.4655    5.7739 C.3       9 UNK         0.0261 
     56 CB         27.5351   27.8290    6.5621 C.3       9 UNK        -0.1959 
     57 C          29.9799   28.5815    6.6263 C.2       9 UNK         0.5033 
     58 O          30.1150   27.8813    7.6319 O.2       9 UNK        -0.5390 
     59 N          30.9182   29.4414    6.2084 N.am      10 UNK        -0.4215 
     60 CA         32.2176   29.6763    6.8467 C.3       10 UNK         0.0240 
     61 CB         32.9001   30.8749    6.1681 C.3       10 UNK        -0.1982 
     62 C          33.1365   28.4421    6.8203 C.2       10 UNK         0.4970 
     63 O          33.9980   28.3077    7.6899 O.2       10 UNK        -0.4916 
     64 N          32.9155   27.5615    5.8380 N.am      11 UNK        -0.4279 
     65 CA         33.5534   26.2469    5.7083 C.3       11 UNK         0.1003 
     66 C          33.0699   25.1963    6.7520 C.2       11 UNK         0.5709 
     67 N          32.0057   25.4353    7.5114 N.am      11 UNK        -0.7358 
     68 O          33.6845   24.1411    6.8815 O.2       11 UNK        -0.4999 
     69 C69        33.4138   25.7042    4.2623 C.3       12 UNK        -0.0954 
     70 S70        34.1375   26.8376    3.0274 S.3       12 UNK        -0.2268 
     71 C71        34.7270   25.6729    1.7628 C.3       12 UNK         0.0203 
     72 H72        32.8281   22.5807    4.7610 H         1 UNK         0.0888 
     73 H73        32.6877   21.4037    6.0696 H         1 UNK         0.0888 
     74 H74        33.2498   20.8951    4.4735 H         1 UNK         0.0888 
     75 H75        30.6476   23.2320    4.4570 H         1 UNK         0.3017 
     76 H76        28.4365   21.4914    4.5536 H         1 UNK         0.0873 
     77 H77        27.7336   21.4247    2.2399 H         1 UNK         0.0745 
     78 H78        29.3250   20.7559    2.2854 H         1 UNK         0.0745 
     79 H79        31.4297   21.8950    1.6416 H         1 UNK         0.0705 
     80 H80        30.9997   21.6611   -0.0368 H         1 UNK         0.0705 
     81 H81        33.0877   23.5188    2.1224 H         1 UNK         0.1334 
     82 H82        33.8333   26.7888   -0.5438 H         1 UNK         0.1417 
     83 H83        30.7409   23.9468   -1.4337 H         1 UNK         0.1562 
     84 H84        32.4255   25.8211   -3.2434 H         1 UNK         0.0748 
     85 H85        32.2881   27.2860   -2.2910 H         1 UNK         0.0748 
     86 H86        29.3677   27.3378   -4.7662 H         1 UNK         0.0940 
     87 H87        30.9768   27.8796   -4.4236 H         1 UNK         0.0940 
     88 H88        28.9952   29.5827   -4.2146 H         1 UNK         0.0703 
     89 H89        28.1848   27.7262   -2.2384 H         1 UNK         0.3081 
     90 H90        26.2758   29.7563   -0.1296 H         1 UNK         0.0719 
     91 H91        25.2513   27.7171   -2.1834 H         1 UNK         0.0809 
     92 H92        24.4321   28.1931   -0.6949 H         1 UNK         0.0809 
     93 H93        24.6488   29.3576   -1.9902 H         1 UNK         0.0809 
     94 H94        26.5983   26.9435   -0.1906 H         1 UNK         0.2990 
     95 H95        29.0492   25.9848    0.2612 H         1 UNK         0.0690 
     96 H96        30.4298   25.8343    2.3432 H         1 UNK         0.0788 
     97 H97        29.8867   27.4465    2.8102 H         1 UNK         0.0788 
     98 H98        30.8518   27.2186    1.3573 H         1 UNK         0.0788 
     99 H99        27.8642   24.7926    1.7038 H         1 UNK         0.2993 
    100 H100       26.2823   25.3782    4.7376 H         1 UNK         0.0949 
    101 H101       24.3180   25.7633    3.2347 H         1 UNK         0.0767 
    102 H102       24.3572   24.1063    3.8124 H         1 UNK         0.0767 
    103 H103       24.8667   24.4804    2.1647 H         1 UNK         0.0767 
    104 H104       26.6028   23.0155    3.1593 H         1 UNK         0.3013 
    105 H105       29.9316   29.2975   -0.8305 H         1 UNK         0.3121 
    106 H106       32.2393   31.1464   -1.2116 H         1 UNK         0.0774 
    107 H107       32.8843   30.4575    1.0424 H         1 UNK         0.0815 
    108 H108       31.4017   29.5488    1.2648 H         1 UNK         0.0815 
    109 H109       32.6098   29.0001    0.1024 H         1 UNK         0.0815 
    110 H110       29.0051   31.3747   -0.9407 H         1 UNK         0.2987 
    111 H111       27.5282   32.8887   -0.4577 H         1 UNK         0.0949 
    112 H112       29.7555   34.7883    0.4368 H         1 UNK         0.0806 
    113 H113       29.1997   34.5882   -1.2257 H         1 UNK         0.0806 
    114 H114       28.1149   35.2258   -0.0024 H         1 UNK         0.0806 
    115 H115       29.1952   31.3659    1.9829 H         1 UNK         0.3010 
    116 H116       27.0792   31.6195    3.8575 H         1 UNK         0.0829 
    117 H117       28.1674   33.8042    4.4604 H         1 UNK         0.0813 
    118 H118       28.4651   32.6396    5.7345 H         1 UNK         0.0813 
    119 H119       29.7372   33.0131    4.5797 H         1 UNK         0.0813 
    120 H120       27.4005   30.1267    5.6043 H         1 UNK         0.3038 
    121 H121       28.9365   27.7925    4.9493 H         1 UNK         0.0769 
    122 H122       27.2798   28.4138    7.4466 H         1 UNK         0.0811 
    123 H123       27.7954   26.8235    6.8963 H         1 UNK         0.0811 
    124 H124       26.6389   27.7375    5.9486 H         1 UNK         0.0811 
    125 H125       30.7419   29.9104    5.3226 H         1 UNK         0.3204 
    126 H126       32.0350   29.9271    7.8936 H         1 UNK         0.0748 
    127 H127       33.8620   31.0928    6.6344 H         1 UNK         0.0771 
    128 H128       33.0848   30.6873    5.1092 H         1 UNK         0.0771 
    129 H129       32.2909   31.7755    6.2476 H         1 UNK         0.0771 
    130 H130       32.2024   27.7723    5.1572 H         1 UNK         0.2980 
    131 H131       34.6184   26.3860    5.9037 H         1 UNK         0.0545 
    132 H132       31.4867   26.3021    7.4394 H         1 UNK         0.3459 
    133 H133       31.7206   24.7401    8.1818 H         1 UNK         0.3459 
    134 H134       33.9109   24.7367    4.1785 H         1 UNK         0.0616 
    135 H135       32.3652   25.5380    4.0089 H         1 UNK         0.0616 
    136 H136       35.4828   26.1739    1.1563 H         1 UNK         0.0634 
    137 H137       35.2313   24.8275    2.2331 H         1 UNK         0.0634 
@<TRIPOS>BOND
     1    1    2 1    
     2    1   72 1    
     3    1   73 1    
     4    1   74 1    
     5    2    3 2    
     6    2    4 am   BACKBONE|DICT|INTERRES
     7    4    5 1    
     8    4   75 1    
     9    5    6 1    
    10    5   35 1    
    11    5   76 1    
    12    6    7 1    
    13    6   77 1    
    14    6   78 1    
    15    7    8 1    
    16    8    9 1    
    17    8   79 1    
    18    8   80 1    
    19    9   10 ar   
    20    9   14 ar   
    21   10   11 ar   
    22   10   81 1    
    23   11   12 ar   
    24   11   71 1    
    25   12   13 ar   
    26   12   82 1    
    27   13   14 ar   
    28   13   15 1    
    29   14   83 1    
    30   15   16 1    
    31   15   84 1    
    32   15   85 1    
    33   16   17 1    
    34   17   18 1    
    35   17   86 1    
    36   17   87 1    
    37   18   19 1    
    38   18   37 1    
    39   18   88 1    
    40   19   20 am   BACKBONE|DICT|INTERRES
    41   19   89 1    
    42   20   21 2    
    43   20   22 1    
    44   22   23 1    
    45   22   24 1    
    46   22   90 1    
    47   23   91 1    
    48   23   92 1    
    49   23   93 1    
    50   24   25 am   BACKBONE|DICT|INTERRES
    51   24   94 1    
    52   25   26 2    
    53   25   27 1    
    54   27   28 1    
    55   27   29 1    
    56   27   95 1    
    57   28   96 1    
    58   28   97 1    
    59   28   98 1    
    60   29   30 am   BACKBONE|DICT|INTERRES
    61   29   99 1    
    62   30   31 2    
    63   30   32 1    
    64   32   33 1    
    65   32   34 1    
    66   32  100 1    
    67   33  101 1    
    68   33  102 1    
    69   33  103 1    
    70   34   35 am   BACKBONE|DICT|INTERRES
    71   34  104 1    
    72   35   36 2    
    73   37   38 2    
    74   37   39 am   BACKBONE|DICT|INTERRES
    75   39   40 1    
    76   39  105 1    
    77   40   41 1    
    78   40   42 1    
    79   40  106 1    
    80   41  107 1    
    81   41  108 1    
    82   41  109 1    
    83   42   43 2    
    84   42   44 am   BACKBONE|DICT|INTERRES
    85   44   45 1    
    86   44  110 1    
    87   45   46 1    
    88   45   47 1    
    89   45  111 1    
    90   46  112 1    
    91   46  113 1    
    92   46  114 1    
    93   47   48 2    
    94   47   49 am   BACKBONE|DICT|INTERRES
    95   49   50 1    
    96   49  115 1    
    97   50   51 1    
    98   50   52 1    
    99   50  116 1    
   100   51  117 1    
   101   51  118 1    
   102   51  119 1    
   103   52   53 2    
   104   52   54 am   BACKBONE|DICT|INTERRES
   105   54   55 1    
   106   54  120 1    
   107   55   56 1    
   108   55   57 1    
   109   55  121 1    
   110   56  122 1    
   111   56  123 1    
   112   56  124 1    
   113   57   58 2    
   114   57   59 am   BACKBONE|DICT|INTERRES
   115   59   60 1    
   116   59  125 1    
   117   60   61 1    
   118   60   62 1    
   119   60  126 1    
   120   61  127 1    
   121   61  128 1    
   122   61  129 1    
   123   62   63 2    
   124   62   64 am   BACKBONE|DICT|INTERRES
   125   64   65 1    
   126   64  130 1    
   127   65   66 1    
   128   65   69 1    
   129   65  131 1    
   130   66   67 am   BACKBONE|DICT|INTERRES
   131   66   68 2    
   132   67  132 1    
   133   67  133 1    
   134   69   70 1    
   135   69  134 1    
   136   69  135 1    
   137   70   71 1    
   138   71  136 1    
   139   71  137 1    
@<TRIPOS>SUBSTRUCTURE
     1 UNK         1 GROUP             0       ****    0 ROOT    
