@<TRIPOS>MOLECULE
3R136
137   139    1
SMALL
USER_CHARGES


@<TRIPOS>ATOM
      1 CA         30.7683   27.5414   -5.1599 C.3       0 UNK        -0.1979 
      2 C          30.6567   26.6721   -3.9156 C.2       0 UNK         0.4864 
      3 O          31.4327   25.7272   -3.7641 O.2       0 UNK        -0.5359 
      4 N          29.7025   26.9939   -3.0296 N.am      1 UNK        -0.4318 
      5 CA         29.3787   26.2683   -1.7937 C.3       1 UNK         0.0824 
      6 C6         30.5786   26.2086   -0.8003 C.3       12 UNK        -0.0944 
      7 S7         30.0489   26.2464    0.9420 S.3       12 UNK        -0.2672 
      8 C8         30.9443   24.8299    1.6491 C.3       12 UNK         0.0333 
      9 C9         30.6610   24.7414    3.1388 C.ar      12 UNK        -0.0807 
     10 C10        31.4716   25.4307    4.0446 C.ar      12 UNK        -0.0894 
     11 C11        31.1655   25.4387    5.4073 C.ar      12 UNK        -0.0804 
     12 C12        30.0449   24.7397    5.8640 C.ar      12 UNK        -0.0824 
     13 C13        29.2356   24.0304    4.9706 C.ar      12 UNK        -0.0762 
     14 C14        29.5598   24.0193    3.6096 C.ar      12 UNK        -0.0782 
     15 C15        28.0003   23.2991    5.4845 C.3       12 UNK         0.0230 
     16 S16        26.4482   23.8588    4.7017 S.3       12 UNK        -0.2608 
     17 C17        26.5486   25.6794    4.8357 C.3       12 UNK        -0.0989 
     18 CA         26.7635   26.3237    3.4419 C.3       5 UNK         0.0716 
     19 N          25.6143   26.0967    2.5603 N.am      5 UNK        -0.4135 
     20 C          25.6747   26.0288    1.2272 C.2       4 UNK         0.5031 
     21 O          26.7160   26.1542    0.5755 O.2       4 UNK        -0.5229 
     22 CA         24.3544   25.7962    0.4870 C.3       4 UNK         0.0329 
     23 CB         23.6772   27.1282    0.1239 C.3       4 UNK        -0.2001 
     24 N          24.6870   25.0605   -0.7227 N.am      4 UNK        -0.4303 
     25 C          23.9419   24.1320   -1.3288 C.2       3 UNK         0.5044 
     26 O          22.7711   23.8858   -1.0369 O.2       3 UNK        -0.5152 
     27 CA         24.6435   23.3163   -2.4315 C.3       3 UNK         0.0319 
     28 CB         24.3988   23.9480   -3.8109 C.3       3 UNK        -0.2001 
     29 N          26.0884   23.1938   -2.2049 N.am      3 UNK        -0.4354 
     30 C          26.6580   22.5030   -1.2084 C.2       2 UNK         0.4964 
     31 O          26.0266   21.7937   -0.4249 O.2       2 UNK        -0.5047 
     32 CA         28.1797   22.6443   -1.0261 C.3       2 UNK         0.0288 
     33 CB         28.9487   21.7388   -2.0080 C.3       2 UNK        -0.2113 
     34 N          28.6782   24.0288   -1.0606 N.am      2 UNK        -0.4145 
     35 C          28.7345   24.8906   -2.0860 C.2       1 UNK         0.5006 
     36 O          28.2699   24.6484   -3.2044 O.2       1 UNK        -0.5103 
     37 C          27.0608   27.8329    3.5127 C.2       5 UNK         0.5055 
     38 O          26.7349   28.4851    4.5069 O.2       5 UNK        -0.5220 
     39 N          27.6129   28.3674    2.4177 N.am      6 UNK        -0.4450 
     40 CA         27.9395   29.7786    2.2403 C.3       6 UNK         0.0367 
     41 CB         28.2037   30.0440    0.7486 C.3       6 UNK        -0.1929 
     42 C          29.1595   30.1843    3.0793 C.2       6 UNK         0.5070 
     43 O          30.2031   29.5361    2.9914 O.2       6 UNK        -0.5237 
     44 N          29.0381   31.2992    3.8138 N.am      7 UNK        -0.4739 
     45 CA         30.1167   31.8930    4.6175 C.3       7 UNK         0.0276 
     46 CB         29.5514   33.0502    5.4554 C.3       7 UNK        -0.1927 
     47 C          31.3219   32.3686    3.7843 C.2       7 UNK         0.5013 
     48 O          32.4323   32.4409    4.3124 O.2       7 UNK        -0.5193 
     49 N          31.0952   32.6211    2.4858 N.am      8 UNK        -0.4253 
     50 CA         32.1031   32.9315    1.4664 C.3       8 UNK         0.0242 
     51 CB         31.3925   33.2000    0.1296 C.3       8 UNK        -0.2000 
     52 C          33.1880   31.8496    1.2890 C.2       8 UNK         0.4948 
     53 O          34.2591   32.1617    0.7681 O.2       8 UNK        -0.5275 
     54 N          32.9222   30.6187    1.7536 N.am      9 UNK        -0.4246 
     55 CA         33.9005   29.5338    1.8607 C.3       9 UNK         0.0261 
     56 CB         33.1466   28.2124    2.0728 C.3       9 UNK        -0.1959 
     57 C          34.9502   29.7427    2.9745 C.2       9 UNK         0.5033 
     58 O          35.8972   28.9575    3.0386 O.2       9 UNK        -0.5390 
     59 N          34.7743   30.7725    3.8208 N.am      10 UNK        -0.4215 
     60 CA         35.6177   31.1552    4.9586 C.3       10 UNK         0.0240 
     61 CB         37.0422   31.5428    4.5046 C.3       10 UNK        -0.1982 
     62 C          35.5923   30.0900    6.0675 C.2       10 UNK         0.4970 
     63 O          36.6418   29.5914    6.4794 O.2       10 UNK        -0.4916 
     64 N          34.3743   29.7565    6.5121 N.am      11 UNK        -0.4279 
     65 CA         34.0897   28.8060    7.5959 C.3       11 UNK         0.1003 
     66 C          34.7297   29.2163    8.9519 C.2       11 UNK         0.5709 
     67 N          35.1944   28.2536    9.7367 N.am      11 UNK        -0.7358 
     68 O          34.7663   30.3910    9.3150 O.2       11 UNK        -0.4999 
     69 C69        32.5641   28.5902    7.7720 C.3       12 UNK        -0.0954 
     70 S70        31.7310   28.0034    6.2603 S.3       12 UNK        -0.2268 
     71 C71        32.0360   26.2142    6.3829 C.3       12 UNK         0.0203 
     72 H72        30.6097   26.9381   -6.0534 H         1 UNK         0.0888 
     73 H73        30.0361   28.3487   -5.1618 H         1 UNK         0.0888 
     74 H74        31.7618   27.9852   -5.2198 H         1 UNK         0.0888 
     75 H75        29.0865   27.7663   -3.2410 H         1 UNK         0.3017 
     76 H76        28.5883   26.8634   -1.3331 H         1 UNK         0.0873 
     77 H77        31.2188   25.3458   -0.9954 H         1 UNK         0.0745 
     78 H78        31.2191   27.0814   -0.9373 H         1 UNK         0.0745 
     79 H79        30.6477   23.9066    1.1496 H         1 UNK         0.0705 
     80 H80        32.0145   24.9520    1.4740 H         1 UNK         0.0705 
     81 H81        32.3251   25.9881    3.6872 H         1 UNK         0.1334 
     82 H82        29.7980   24.7566    6.9169 H         1 UNK         0.1417 
     83 H83        28.9242   23.4889    2.9134 H         1 UNK         0.1562 
     84 H84        27.9021   23.4178    6.5647 H         1 UNK         0.0748 
     85 H85        28.1200   22.2299    5.3049 H         1 UNK         0.0748 
     86 H86        27.3540   25.9541    5.5192 H         1 UNK         0.0940 
     87 H87        25.6300   26.0478    5.2960 H         1 UNK         0.0940 
     88 H88        27.6437   25.8579    2.9960 H         1 UNK         0.0703 
     89 H89        24.7185   26.0062    3.0165 H         1 UNK         0.3081 
     90 H90        23.6915   25.1962    1.1145 H         1 UNK         0.0719 
     91 H91        24.3256   27.7549   -0.4902 H         1 UNK         0.0809 
     92 H92        22.7514   26.9637   -0.4276 H         1 UNK         0.0809 
     93 H93        23.4252   27.6967    1.0199 H         1 UNK         0.0809 
     94 H94        25.6546   25.1659   -1.0012 H         1 UNK         0.2990 
     95 H95        24.2120   22.3132   -2.4288 H         1 UNK         0.0690 
     96 H96        24.8318   23.3416   -4.6067 H         1 UNK         0.0788 
     97 H97        24.8292   24.9481   -3.8791 H         1 UNK         0.0788 
     98 H98        23.3309   24.0365   -4.0157 H         1 UNK         0.0788 
     99 H99        26.7065   23.7424   -2.7993 H         1 UNK         0.2993 
    100 H100       28.3997   22.2852   -0.0191 H         1 UNK         0.0949 
    101 H101       28.7766   22.0204   -3.0473 H         1 UNK         0.0767 
    102 H102       30.0225   21.7785   -1.8242 H         1 UNK         0.0767 
    103 H103       28.6395   20.6983   -1.9001 H         1 UNK         0.0767 
    104 H104       29.0001   24.3903   -0.1715 H         1 UNK         0.3013 
    105 H105       27.8445   27.7432    1.6530 H         1 UNK         0.3121 
    106 H106       27.0750   30.3702    2.5493 H         1 UNK         0.0774 
    107 H107       29.0549   29.4675    0.3820 H         1 UNK         0.0815 
    108 H108       28.4213   31.0976    0.5697 H         1 UNK         0.0815 
    109 H109       27.3375   29.7842    0.1398 H         1 UNK         0.0815 
    110 H110       28.1477   31.7768    3.8304 H         1 UNK         0.2987 
    111 H111       30.4839   31.1214    5.2984 H         1 UNK         0.0949 
    112 H112       29.1471   33.8452    4.8275 H         1 UNK         0.0806 
    113 H113       28.7578   32.7087    6.1202 H         1 UNK         0.0806 
    114 H114       30.3271   33.4929    6.0823 H         1 UNK         0.0806 
    115 H115       30.1438   32.5325    2.1615 H         1 UNK         0.3010 
    116 H116       32.6109   33.8463    1.7787 H         1 UNK         0.0829 
    117 H117       32.1100   33.4681   -0.6473 H         1 UNK         0.0813 
    118 H118       30.8467   32.3228   -0.2206 H         1 UNK         0.0813 
    119 H119       30.6862   34.0263    0.2125 H         1 UNK         0.0813 
    120 H120       32.0074   30.4315    2.1513 H         1 UNK         0.3038 
    121 H121       34.4424   29.4692    0.9149 H         1 UNK         0.0769 
    122 H122       32.4438   28.0244    1.2618 H         1 UNK         0.0811 
    123 H123       32.5838   28.2215    3.0070 H         1 UNK         0.0811 
    124 H124       33.8334   27.3660    2.1096 H         1 UNK         0.0811 
    125 H125       33.9350   31.3362    3.7145 H         1 UNK         0.3204 
    126 H126       35.1616   32.0502    5.3851 H         1 UNK         0.0748 
    127 H127       37.6211   31.9381    5.3401 H         1 UNK         0.0771 
    128 H128       37.5926   30.6901    4.1061 H         1 UNK         0.0771 
    129 H129       37.0158   32.3140    3.7347 H         1 UNK         0.0771 
    130 H130       33.5700   30.2146    6.1110 H         1 UNK         0.2980 
    131 H131       34.5337   27.8547    7.2966 H         1 UNK         0.0545 
    132 H132       35.1586   27.2863    9.4551 H         1 UNK         0.3459 
    133 H133       35.5980   28.5006   10.6268 H         1 UNK         0.3459 
    134 H134       32.0840   29.5238    8.0712 H         1 UNK         0.0616 
    135 H135       32.3640   27.8808    8.5771 H         1 UNK         0.0616 
    136 H136       33.0886   26.0131    6.1792 H         1 UNK         0.0634 
    137 H137       31.8469   25.8789    7.4037 H         1 UNK         0.0634 
@<TRIPOS>BOND
     1    1    2 1    
     2    1   72 1    
     3    1   73 1    
     4    1   74 1    
     5    2    3 2    
     6    2    4 am   BACKBONE|DICT|INTERRES
     7    4    5 1    
     8    4   75 1    
     9    5    6 1    
    10    5   35 1    
    11    5   76 1    
    12    6    7 1    
    13    6   77 1    
    14    6   78 1    
    15    7    8 1    
    16    8    9 1    
    17    8   79 1    
    18    8   80 1    
    19    9   10 ar   
    20    9   14 ar   
    21   10   11 ar   
    22   10   81 1    
    23   11   12 ar   
    24   11   71 1    
    25   12   13 ar   
    26   12   82 1    
    27   13   14 ar   
    28   13   15 1    
    29   14   83 1    
    30   15   16 1    
    31   15   84 1    
    32   15   85 1    
    33   16   17 1    
    34   17   18 1    
    35   17   86 1    
    36   17   87 1    
    37   18   19 1    
    38   18   37 1    
    39   18   88 1    
    40   19   20 am   BACKBONE|DICT|INTERRES
    41   19   89 1    
    42   20   21 2    
    43   20   22 1    
    44   22   23 1    
    45   22   24 1    
    46   22   90 1    
    47   23   91 1    
    48   23   92 1    
    49   23   93 1    
    50   24   25 am   BACKBONE|DICT|INTERRES
    51   24   94 1    
    52   25   26 2    
    53   25   27 1    
    54   27   28 1    
    55   27   29 1    
    56   27   95 1    
    57   28   96 1    
    58   28   97 1    
    59   28   98 1    
    60   29   30 am   BACKBONE|DICT|INTERRES
    61   29   99 1    
    62   30   31 2    
    63   30   32 1    
    64   32   33 1    
    65   32   34 1    
    66   32  100 1    
    67   33  101 1    
    68   33  102 1    
    69   33  103 1    
    70   34   35 am   BACKBONE|DICT|INTERRES
    71   34  104 1    
    72   35   36 2    
    73   37   38 2    
    74   37   39 am   BACKBONE|DICT|INTERRES
    75   39   40 1    
    76   39  105 1    
    77   40   41 1    
    78   40   42 1    
    79   40  106 1    
    80   41  107 1    
    81   41  108 1    
    82   41  109 1    
    83   42   43 2    
    84   42   44 am   BACKBONE|DICT|INTERRES
    85   44   45 1    
    86   44  110 1    
    87   45   46 1    
    88   45   47 1    
    89   45  111 1    
    90   46  112 1    
    91   46  113 1    
    92   46  114 1    
    93   47   48 2    
    94   47   49 am   BACKBONE|DICT|INTERRES
    95   49   50 1    
    96   49  115 1    
    97   50   51 1    
    98   50   52 1    
    99   50  116 1    
   100   51  117 1    
   101   51  118 1    
   102   51  119 1    
   103   52   53 2    
   104   52   54 am   BACKBONE|DICT|INTERRES
   105   54   55 1    
   106   54  120 1    
   107   55   56 1    
   108   55   57 1    
   109   55  121 1    
   110   56  122 1    
   111   56  123 1    
   112   56  124 1    
   113   57   58 2    
   114   57   59 am   BACKBONE|DICT|INTERRES
   115   59   60 1    
   116   59  125 1    
   117   60   61 1    
   118   60   62 1    
   119   60  126 1    
   120   61  127 1    
   121   61  128 1    
   122   61  129 1    
   123   62   63 2    
   124   62   64 am   BACKBONE|DICT|INTERRES
   125   64   65 1    
   126   64  130 1    
   127   65   66 1    
   128   65   69 1    
   129   65  131 1    
   130   66   67 am   BACKBONE|DICT|INTERRES
   131   66   68 2    
   132   67  132 1    
   133   67  133 1    
   134   69   70 1    
   135   69  134 1    
   136   69  135 1    
   137   70   71 1    
   138   71  136 1    
   139   71  137 1    
@<TRIPOS>SUBSTRUCTURE
     1 UNK         1 GROUP             0       ****    0 ROOT    
