@<TRIPOS>MOLECULE
3R136
137   139    1
SMALL
USER_CHARGES


@<TRIPOS>ATOM
      1 CA         27.1069   19.3186   -0.3011 C.3       0 UNK        -0.1979 
      2 C          28.1600   19.7199    0.7293 C.2       0 UNK         0.4864 
      3 O          28.2185   19.1123    1.7966 O.2       0 UNK        -0.5359 
      4 N          29.0143   20.7219    0.4694 N.am      1 UNK        -0.4318 
      5 CA         29.0569   21.5785   -0.7245 C.3       1 UNK         0.0824 
      6 C6         30.3955   22.3623   -0.8108 C.3       12 UNK        -0.0944 
      7 S7         30.6000   23.6614    0.4616 S.3       12 UNK        -0.2672 
      8 C8         31.6549   22.8338    1.6894 C.3       12 UNK         0.0333 
      9 C9         31.6401   23.5817    3.0146 C.ar      12 UNK        -0.0807 
     10 C10        32.7958   24.2060    3.4941 C.ar      12 UNK        -0.0894 
     11 C11        32.7844   24.8645    4.7280 C.ar      12 UNK        -0.0804 
     12 C12        31.6028   24.9113    5.4751 C.ar      12 UNK        -0.0824 
     13 C13        30.4407   24.2925    5.0058 C.ar      12 UNK        -0.0762 
     14 C14        30.4689   23.6238    3.7782 C.ar      12 UNK        -0.0782 
     15 C15        29.1672   24.3101    5.8426 C.3       12 UNK         0.0230 
     16 S16        28.3759   25.9514    5.8984 S.3       12 UNK        -0.2608 
     17 C17        27.9174   26.2239    4.1545 C.3       12 UNK        -0.0989 
     18 CA         28.5324   27.5410    3.6047 C.3       5 UNK         0.0716 
     19 N          29.1750   27.3538    2.3043 N.am      5 UNK        -0.4135 
     20 C          29.9772   28.2468    1.7091 C.2       4 UNK         0.5031 
     21 O          30.3115   29.3191    2.2122 O.2       4 UNK        -0.5229 
     22 CA         30.4599   27.8984    0.2938 C.3       4 UNK         0.0329 
     23 CB         31.7652   27.0931    0.3592 C.3       4 UNK        -0.2001 
     24 N          29.4452   27.1728   -0.4798 N.am      4 UNK        -0.4303 
     25 C          28.3040   27.7389   -0.9021 C.2       3 UNK         0.5044 
     26 O          28.0033   28.9121   -0.6838 O.2       3 UNK        -0.5152 
     27 CA         27.3160   26.8479   -1.6707 C.3       3 UNK         0.0319 
     28 CB         27.7929   26.6286   -3.1152 C.3       3 UNK        -0.2001 
     29 N          27.0454   25.5511   -1.0454 N.am      3 UNK        -0.4354 
     30 C          26.5967   25.3418    0.1991 C.2       2 UNK         0.4964 
     31 O          26.4730   26.2283    1.0434 O.2       2 UNK        -0.5047 
     32 CA         26.2252   23.8967    0.5767 C.3       2 UNK         0.0288 
     33 CB         24.8987   23.4675   -0.0803 C.3       2 UNK        -0.2113 
     34 N          27.2943   22.9205    0.3331 N.am      2 UNK        -0.4145 
     35 C          27.8438   22.5292   -0.8285 C.2       1 UNK         0.5006 
     36 O          27.4579   22.8991   -1.9385 O.2       1 UNK        -0.5103 
     37 C          27.4965   28.6805    3.5427 C.2       5 UNK         0.5055 
     38 O          27.5588   29.6058    4.3544 O.2       5 UNK        -0.5220 
     39 N          26.6053   28.6139    2.5403 N.am      6 UNK        -0.4450 
     40 CA         25.5651   29.6034    2.2392 C.3       6 UNK         0.0367 
     41 CB         24.6976   29.0884    1.0799 C.3       6 UNK        -0.1929 
     42 C          26.1127   31.0052    1.9186 C.2       6 UNK         0.5070 
     43 O          25.4510   31.9962    2.2248 O.2       6 UNK        -0.5237 
     44 N          27.3321   31.0704    1.3688 N.am      7 UNK        -0.4739 
     45 CA         28.1113   32.2918    1.1423 C.3       7 UNK         0.0276 
     46 CB         29.1256   32.0211    0.0174 C.3       7 UNK        -0.1927 
     47 C          28.7943   32.8444    2.4162 C.2       7 UNK         0.5013 
     48 O          29.7337   33.6316    2.2966 O.2       7 UNK        -0.5193 
     49 N          28.3124   32.4387    3.6012 N.am      8 UNK        -0.4253 
     50 CA         28.7726   32.8002    4.9455 C.3       8 UNK         0.0242 
     51 CB         28.6419   34.3179    5.2012 C.3       8 UNK        -0.2000 
     52 C          30.1740   32.2425    5.2448 C.2       8 UNK         0.4948 
     53 O          31.0469   32.9818    5.7038 O.2       8 UNK        -0.5275 
     54 N          30.3430   30.9370    4.9835 N.am      9 UNK        -0.4246 
     55 CA         31.5679   30.1466    5.1596 C.3       9 UNK         0.0261 
     56 CB         31.9057   29.9796    6.6560 C.3       9 UNK        -0.1959 
     57 C          32.7435   30.6973    4.3303 C.2       9 UNK         0.5033 
     58 O          33.8121   30.9933    4.8712 O.2       9 UNK        -0.5390 
     59 N          32.5287   30.8062    3.0139 N.am      10 UNK        -0.4215 
     60 CA         33.5268   31.2018    2.0171 C.3       10 UNK         0.0240 
     61 CB         32.8006   31.7867    0.7922 C.3       10 UNK        -0.1982 
     62 C          34.4265   30.0042    1.6562 C.2       10 UNK         0.4970 
     63 O          34.4486   29.5673    0.5043 O.2       10 UNK        -0.4916 
     64 N          35.1142   29.4696    2.6664 N.am      11 UNK        -0.4279 
     65 CA         35.8640   28.2112    2.6342 C.3       11 UNK         0.1003 
     66 C          37.1858   28.3087    3.4427 C.2       11 UNK         0.5709 
     67 N          38.0586   27.3170    3.3240 N.am      11 UNK        -0.7358 
     68 O          37.4348   29.2677    4.1726 O.2       11 UNK        -0.4999 
     69 C69        34.9646   27.0174    3.0664 C.3       12 UNK        -0.0954 
     70 S70        34.2275   27.2230    4.7279 S.3       12 UNK        -0.2268 
     71 C71        34.0533   25.5003    5.2747 C.3       12 UNK         0.0203 
     72 H72        27.5389   19.2028   -1.2941 H         1 UNK         0.0888 
     73 H73        26.6579   18.3632   -0.0300 H         1 UNK         0.0888 
     74 H74        26.3076   20.0576   -0.3460 H         1 UNK         0.0888 
     75 H75        29.7081   20.9376    1.1691 H         1 UNK         0.3017 
     76 H76        29.0197   20.9264   -1.5989 H         1 UNK         0.0873 
     77 H77        31.2393   21.6718   -0.7640 H         1 UNK         0.0745 
     78 H78        30.4749   22.8450   -1.7869 H         1 UNK         0.0745 
     79 H79        31.3086   21.8136    1.8558 H         1 UNK         0.0705 
     80 H80        32.6686   22.7567    1.2930 H         1 UNK         0.0705 
     81 H81        33.7085   24.1691    2.9155 H         1 UNK         0.1334 
     82 H82        31.5882   25.4213    6.4289 H         1 UNK         0.1417 
     83 H83        29.5783   23.1311    3.4136 H         1 UNK         0.1562 
     84 H84        29.4072   24.0037    6.8618 H         1 UNK         0.0748 
     85 H85        28.4465   23.5800    5.4705 H         1 UNK         0.0748 
     86 H86        26.8280   26.2049    4.0756 H         1 UNK         0.0940 
     87 H87        28.2479   25.3683    3.5657 H         1 UNK         0.0940 
     88 H88        29.3252   27.8701    4.2799 H         1 UNK         0.0703 
     89 H89        28.9260   26.5221    1.7907 H         1 UNK         0.3081 
     90 H90        30.6698   28.8348   -0.2278 H         1 UNK         0.0719 
     91 H91        32.5684   27.7098    0.7598 H         1 UNK         0.0809 
     92 H92        32.0815   26.7511   -0.6262 H         1 UNK         0.0809 
     93 H93        31.6802   26.2256    1.0128 H         1 UNK         0.0809 
     94 H94        29.6218   26.2003   -0.6894 H         1 UNK         0.2990 
     95 H95        26.3654   27.3836   -1.7092 H         1 UNK         0.0690 
     96 H96        27.0378   26.1104   -3.7067 H         1 UNK         0.0788 
     97 H97        28.7099   26.0391   -3.1540 H         1 UNK         0.0788 
     98 H98        27.9935   27.5799   -3.6103 H         1 UNK         0.0788 
     99 H99        27.1426   24.7285   -1.6356 H         1 UNK         0.2993 
    100 H100       26.0652   23.8941    1.6564 H         1 UNK         0.0949 
    101 H101       24.5968   22.4743    0.2526 H         1 UNK         0.0767 
    102 H102       24.0948   24.1558    0.1843 H         1 UNK         0.0767 
    103 H103       24.9627   23.4498   -1.1686 H         1 UNK         0.0767 
    104 H104       27.7266   22.5550    1.1697 H         1 UNK         0.3013 
    105 H105       26.6276   27.7948    1.9335 H         1 UNK         0.3121 
    106 H106       24.9353   29.6942    3.1264 H         1 UNK         0.0774 
    107 H107       25.2837   28.9521    0.1702 H         1 UNK         0.0815 
    108 H108       23.8943   29.7896    0.8501 H         1 UNK         0.0815 
    109 H109       24.2341   28.1325    1.3247 H         1 UNK         0.0815 
    110 H110       27.7753   30.2012    1.0946 H         1 UNK         0.2987 
    111 H111       27.4312   33.0727    0.7957 H         1 UNK         0.0949 
    112 H112       29.8277   31.2374    0.2985 H         1 UNK         0.0806 
    113 H113       28.6253   31.7053   -0.8982 H         1 UNK         0.0806 
    114 H114       29.7049   32.9131   -0.2244 H         1 UNK         0.0806 
    115 H115       27.5744   31.7462    3.5794 H         1 UNK         0.3010 
    116 H116       28.0957   32.2974    5.6382 H         1 UNK         0.0829 
    117 H117       29.3324   34.8969    4.5874 H         1 UNK         0.0813 
    118 H118       27.6314   34.6698    4.9939 H         1 UNK         0.0813 
    119 H119       28.8606   34.5556    6.2429 H         1 UNK         0.0813 
    120 H120       29.5525   30.4395    4.5880 H         1 UNK         0.3038 
    121 H121       31.3575   29.1517    4.7646 H         1 UNK         0.0769 
    122 H122       32.7630   29.3181    6.7876 H         1 UNK         0.0811 
    123 H123       32.1553   30.9314    7.1257 H         1 UNK         0.0811 
    124 H124       31.0717   29.5415    7.2039 H         1 UNK         0.0811 
    125 H125       31.6439   30.4466    2.6548 H         1 UNK         0.3204 
    126 H126       34.1631   31.9835    2.4374 H         1 UNK         0.0748 
    127 H127       32.1608   32.6240    1.0724 H         1 UNK         0.0771 
    128 H128       33.5145   32.1553    0.0546 H         1 UNK         0.0771 
    129 H129       32.1791   31.0386    0.2992 H         1 UNK         0.0771 
    130 H130       35.0528   29.9076    3.5801 H         1 UNK         0.2980 
    131 H131       36.1780   28.0354    1.6037 H         1 UNK         0.0545 
    132 H132       37.8738   26.5259    2.7274 H         1 UNK         0.3459 
    133 H133       38.9224   27.3624    3.8415 H         1 UNK         0.3459 
    134 H134       34.1477   26.8951    2.3551 H         1 UNK         0.0616 
    135 H135       35.5285   26.0846    3.0268 H         1 UNK         0.0616 
    136 H136       34.9310   24.9208    4.9851 H         1 UNK         0.0634 
    137 H137       34.0316   25.4860    6.3654 H         1 UNK         0.0634 
@<TRIPOS>BOND
     1    1    2 1    
     2    1   72 1    
     3    1   73 1    
     4    1   74 1    
     5    2    3 2    
     6    2    4 am   BACKBONE|DICT|INTERRES
     7    4    5 1    
     8    4   75 1    
     9    5    6 1    
    10    5   35 1    
    11    5   76 1    
    12    6    7 1    
    13    6   77 1    
    14    6   78 1    
    15    7    8 1    
    16    8    9 1    
    17    8   79 1    
    18    8   80 1    
    19    9   10 ar   
    20    9   14 ar   
    21   10   11 ar   
    22   10   81 1    
    23   11   12 ar   
    24   11   71 1    
    25   12   13 ar   
    26   12   82 1    
    27   13   14 ar   
    28   13   15 1    
    29   14   83 1    
    30   15   16 1    
    31   15   84 1    
    32   15   85 1    
    33   16   17 1    
    34   17   18 1    
    35   17   86 1    
    36   17   87 1    
    37   18   19 1    
    38   18   37 1    
    39   18   88 1    
    40   19   20 am   BACKBONE|DICT|INTERRES
    41   19   89 1    
    42   20   21 2    
    43   20   22 1    
    44   22   23 1    
    45   22   24 1    
    46   22   90 1    
    47   23   91 1    
    48   23   92 1    
    49   23   93 1    
    50   24   25 am   BACKBONE|DICT|INTERRES
    51   24   94 1    
    52   25   26 2    
    53   25   27 1    
    54   27   28 1    
    55   27   29 1    
    56   27   95 1    
    57   28   96 1    
    58   28   97 1    
    59   28   98 1    
    60   29   30 am   BACKBONE|DICT|INTERRES
    61   29   99 1    
    62   30   31 2    
    63   30   32 1    
    64   32   33 1    
    65   32   34 1    
    66   32  100 1    
    67   33  101 1    
    68   33  102 1    
    69   33  103 1    
    70   34   35 am   BACKBONE|DICT|INTERRES
    71   34  104 1    
    72   35   36 2    
    73   37   38 2    
    74   37   39 am   BACKBONE|DICT|INTERRES
    75   39   40 1    
    76   39  105 1    
    77   40   41 1    
    78   40   42 1    
    79   40  106 1    
    80   41  107 1    
    81   41  108 1    
    82   41  109 1    
    83   42   43 2    
    84   42   44 am   BACKBONE|DICT|INTERRES
    85   44   45 1    
    86   44  110 1    
    87   45   46 1    
    88   45   47 1    
    89   45  111 1    
    90   46  112 1    
    91   46  113 1    
    92   46  114 1    
    93   47   48 2    
    94   47   49 am   BACKBONE|DICT|INTERRES
    95   49   50 1    
    96   49  115 1    
    97   50   51 1    
    98   50   52 1    
    99   50  116 1    
   100   51  117 1    
   101   51  118 1    
   102   51  119 1    
   103   52   53 2    
   104   52   54 am   BACKBONE|DICT|INTERRES
   105   54   55 1    
   106   54  120 1    
   107   55   56 1    
   108   55   57 1    
   109   55  121 1    
   110   56  122 1    
   111   56  123 1    
   112   56  124 1    
   113   57   58 2    
   114   57   59 am   BACKBONE|DICT|INTERRES
   115   59   60 1    
   116   59  125 1    
   117   60   61 1    
   118   60   62 1    
   119   60  126 1    
   120   61  127 1    
   121   61  128 1    
   122   61  129 1    
   123   62   63 2    
   124   62   64 am   BACKBONE|DICT|INTERRES
   125   64   65 1    
   126   64  130 1    
   127   65   66 1    
   128   65   69 1    
   129   65  131 1    
   130   66   67 am   BACKBONE|DICT|INTERRES
   131   66   68 2    
   132   67  132 1    
   133   67  133 1    
   134   69   70 1    
   135   69  134 1    
   136   69  135 1    
   137   70   71 1    
   138   71  136 1    
   139   71  137 1    
@<TRIPOS>SUBSTRUCTURE
     1 UNK         1 GROUP             0       ****    0 ROOT    
