@<TRIPOS>MOLECULE
3R136
137   139    1
SMALL
USER_CHARGES


@<TRIPOS>ATOM
      1 CA         30.6290   18.7957   -0.3780 C.3       0 UNK        -0.1979 
      2 C          30.5246   20.3132   -0.3990 C.2       0 UNK         0.4864 
      3 O          31.1896   20.9633   -1.2084 O.2       0 UNK        -0.5359 
      4 N          29.6928   20.8877    0.4801 N.am      1 UNK        -0.4318 
      5 CA         29.4602   22.3301    0.6114 C.3       1 UNK         0.0824 
      6 C6         28.9130   22.7050    2.0148 C.3       12 UNK        -0.0944 
      7 S7         30.1356   22.3728    3.3263 S.3       12 UNK        -0.2672 
      8 C8         31.0727   23.9378    3.3232 C.3       12 UNK         0.0333 
      9 C9         30.9271   24.7258    4.6202 C.ar      12 UNK        -0.0807 
     10 C10        32.0746   25.1609    5.2907 C.ar      12 UNK        -0.0894 
     11 C11        31.9757   25.9226    6.4575 C.ar      12 UNK        -0.0804 
     12 C12        30.7125   26.2253    6.9710 C.ar      12 UNK        -0.0824 
     13 C13        29.5551   25.7853    6.3222 C.ar      12 UNK        -0.0762 
     14 C14        29.6663   25.0483    5.1380 C.ar      12 UNK        -0.0782 
     15 C15        28.1944   26.0895    6.9298 C.3       12 UNK         0.0230 
     16 S16        27.5416   27.6919    6.3651 S.3       12 UNK        -0.2608 
     17 C17        26.5470   27.2167    4.9096 C.3       12 UNK        -0.0989 
     18 CA         27.0014   27.9146    3.5959 C.3       5 UNK         0.0716 
     19 N          26.7479   27.0829    2.4131 N.am      5 UNK        -0.4135 
     20 C          25.5432   26.7064    1.9567 C.2       4 UNK         0.5031 
     21 O          24.4885   26.9325    2.5524 O.2       4 UNK        -0.5229 
     22 CA         25.4987   25.9611    0.6071 C.3       4 UNK         0.0329 
     23 CB         24.2596   26.3539   -0.2252 C.3       4 UNK        -0.2001 
     24 N          26.7131   26.0763   -0.2144 N.am      4 UNK        -0.4303 
     25 C          27.2685   27.1943   -0.7130 C.2       3 UNK         0.5044 
     26 O          26.8873   28.3270   -0.4162 O.2       3 UNK        -0.5152 
     27 CA         28.4766   27.0434   -1.6624 C.3       3 UNK         0.0319 
     28 CB         29.7364   27.6617   -1.0348 C.3       3 UNK        -0.2001 
     29 N          28.7757   25.6570   -2.0313 N.am      3 UNK        -0.4354 
     30 C          28.0606   24.8992   -2.8757 C.2       2 UNK         0.4964 
     31 O          27.1119   25.3196   -3.5378 O.2       2 UNK        -0.5047 
     32 CA         28.4442   23.4081   -2.9625 C.3       2 UNK         0.0288 
     33 CB         29.3537   23.1552   -4.1756 C.3       2 UNK        -0.2113 
     34 N          29.0969   22.8855   -1.7534 N.am      2 UNK        -0.4145 
     35 C          28.5574   22.8522   -0.5261 C.2       1 UNK         0.5006 
     36 O          27.4128   23.2372   -0.2806 O.2       1 UNK        -0.5103 
     37 C          26.4375   29.3515    3.4264 C.2       5 UNK         0.5055 
     38 O          26.0600   29.9855    4.4136 O.2       5 UNK        -0.5220 
     39 N          26.3692   29.8460    2.1776 N.am      6 UNK        -0.4450 
     40 CA         25.8135   31.1612    1.8363 C.3       6 UNK         0.0367 
     41 CB         25.5931   31.2388    0.3172 C.3       6 UNK        -0.1929 
     42 C          26.6724   32.3468    2.3131 C.2       6 UNK         0.5070 
     43 O          26.1390   33.4414    2.4980 O.2       6 UNK        -0.5237 
     44 N          27.9748   32.1158    2.5027 N.am      7 UNK        -0.4739 
     45 CA         28.9560   33.0727    3.0007 C.3       7 UNK         0.0276 
     46 CB         29.4162   33.9948    1.8548 C.3       7 UNK        -0.1927 
     47 C          30.1376   32.2880    3.5793 C.2       7 UNK         0.5013 
     48 O          30.2903   31.1019    3.2718 O.2       7 UNK        -0.5193 
     49 N          30.9918   32.9758    4.3513 N.am      8 UNK        -0.4253 
     50 CA         32.2154   32.4328    4.9626 C.3       8 UNK         0.0242 
     51 CB         32.8776   33.5184    5.8260 C.3       8 UNK        -0.2000 
     52 C          33.2304   31.8521    3.9582 C.2       8 UNK         0.4948 
     53 O          34.0321   30.9980    4.3357 O.2       8 UNK        -0.5275 
     54 N          33.1378   32.2732    2.6874 N.am      9 UNK        -0.4246 
     55 CA         33.8516   31.7088    1.5387 C.3       9 UNK         0.0261 
     56 CB         33.4748   32.4995    0.2755 C.3       9 UNK        -0.1959 
     57 C          33.6046   30.2023    1.3209 C.2       9 UNK         0.5033 
     58 O          34.4649   29.5413    0.7371 O.2       9 UNK        -0.5390 
     59 N          32.4791   29.6702    1.8288 N.am      10 UNK        -0.4215 
     60 CA         32.1688   28.2371    1.8655 C.3       10 UNK         0.0240 
     61 CB         30.7693   28.0334    2.4704 C.3       10 UNK        -0.1982 
     62 C          33.2042   27.3995    2.6391 C.2       10 UNK         0.4970 
     63 O          33.3827   26.2258    2.3128 O.2       10 UNK        -0.4916 
     64 N          33.8767   28.0134    3.6223 N.am      11 UNK        -0.4279 
     65 CA         34.9739   27.4062    4.3863 C.3       11 UNK         0.1003 
     66 C          36.3361   27.3794    3.6313 C.2       11 UNK         0.5709 
     67 N          36.4646   27.9605    2.4427 N.am      11 UNK        -0.7358 
     68 O          37.2999   26.8045    4.1317 O.2       11 UNK        -0.4999 
     69 C69        35.1227   28.0345    5.7987 C.3       12 UNK        -0.0954 
     70 S70        33.5665   28.1578    6.7473 S.3       12 UNK        -0.2268 
     71 C71        33.2246   26.4205    7.1707 C.3       12 UNK         0.0203 
     72 H72        30.3351   18.3863   -1.3440 H         1 UNK         0.0888 
     73 H73        31.6566   18.4939   -0.1777 H         1 UNK         0.0888 
     74 H74        29.9906   18.3537    0.3868 H         1 UNK         0.0888 
     75 H75        29.1658   20.3051    1.1152 H         1 UNK         0.3017 
     76 H76        30.4198   22.8392    0.4943 H         1 UNK         0.0873 
     77 H77        28.6269   23.7577    2.0626 H         1 UNK         0.0745 
     78 H78        28.0056   22.1400    2.2363 H         1 UNK         0.0745 
     79 H79        32.1208   23.6941    3.1418 H         1 UNK         0.0705 
     80 H80        30.7708   24.5707    2.4889 H         1 UNK         0.0705 
     81 H81        33.0483   24.9153    4.8923 H         1 UNK         0.1334 
     82 H82        30.6308   26.8076    7.8789 H         1 UNK         0.1417 
     83 H83        28.7743   24.7127    4.6273 H         1 UNK         0.1562 
     84 H84        28.2826   26.1215    8.0170 H         1 UNK         0.0748 
     85 H85        27.4874   25.2859    6.7187 H         1 UNK         0.0748 
     86 H86        25.4943   27.4172    5.1187 H         1 UNK         0.0940 
     87 H87        26.6100   26.1349    4.7884 H         1 UNK         0.0940 
     88 H88        28.0855   28.0271    3.6351 H         1 UNK         0.0703 
     89 H89        27.5524   26.8511    1.8506 H         1 UNK         0.3081 
     90 H90        25.4065   24.9029    0.8563 H         1 UNK         0.0719 
     91 H91        23.3363   26.1312    0.3110 H         1 UNK         0.0809 
     92 H92        24.2518   27.4194   -0.4580 H         1 UNK         0.0809 
     93 H93        24.2245   25.8047   -1.1662 H         1 UNK         0.0809 
     94 H94        27.1175   25.1825   -0.4762 H         1 UNK         0.2990 
     95 H95        28.2380   27.5992   -2.5716 H         1 UNK         0.0690 
     96 H96        30.0517   27.1075   -0.1515 H         1 UNK         0.0788 
     97 H97        29.5649   28.6961   -0.7325 H         1 UNK         0.0788 
     98 H98        30.5678   27.6685   -1.7400 H         1 UNK         0.0788 
     99 H99        29.5570   25.2252   -1.5607 H         1 UNK         0.2993 
    100 H100       27.5180   22.8467   -3.1031 H         1 UNK         0.0949 
    101 H101       28.8846   23.5056   -5.0962 H         1 UNK         0.0767 
    102 H102       30.3093   23.6721   -4.0781 H         1 UNK         0.0767 
    103 H103       29.5586   22.0918   -4.3027 H         1 UNK         0.0767 
    104 H104       30.0185   22.4725   -1.8652 H         1 UNK         0.3013 
    105 H105       26.6584   29.2666    1.3949 H         1 UNK         0.3121 
    106 H106       24.8403   31.2494    2.3242 H         1 UNK         0.0774 
    107 H107       26.5317   31.1451   -0.2307 H         1 UNK         0.0815 
    108 H108       25.1432   32.1915    0.0347 H         1 UNK         0.0815 
    109 H109       24.9246   30.4496   -0.0279 H         1 UNK         0.0815 
    110 H110       28.3386   31.1787    2.3798 H         1 UNK         0.2987 
    111 H111       28.5076   33.6648    3.8016 H         1 UNK         0.0949 
    112 H112       29.8736   33.4286    1.0423 H         1 UNK         0.0806 
    113 H113       28.5809   34.5576    1.4378 H         1 UNK         0.0806 
    114 H114       30.1497   34.7238    2.2010 H         1 UNK         0.0806 
    115 H115       30.7930   33.9481    4.5410 H         1 UNK         0.3010 
    116 H116       31.9143   31.6111    5.6162 H         1 UNK         0.0829 
    117 H117       33.7745   33.1345    6.3147 H         1 UNK         0.0813 
    118 H118       33.1755   34.3825    5.2309 H         1 UNK         0.0813 
    119 H119       32.2074   33.8651    6.6129 H         1 UNK         0.0813 
    120 H120       32.4548   32.9871    2.4831 H         1 UNK         0.3038 
    121 H121       34.9200   31.8379    1.7230 H         1 UNK         0.0769 
    122 H122       32.4084   32.4278    0.0571 H         1 UNK         0.0811 
    123 H123       34.0117   32.1213   -0.5958 H         1 UNK         0.0811 
    124 H124       33.7286   33.5550    0.3757 H         1 UNK         0.0811 
    125 H125       31.8173   30.2804    2.3014 H         1 UNK         0.3204 
    126 H126       32.1622   27.8786    0.8347 H         1 UNK         0.0748 
    127 H127       30.4782   26.9835    2.4416 H         1 UNK         0.0771 
    128 H128       30.7343   28.3495    3.5144 H         1 UNK         0.0771 
    129 H129       30.0128   28.5980    1.9254 H         1 UNK         0.0771 
    130 H130       33.6977   28.9910    3.8220 H         1 UNK         0.2980 
    131 H131       34.7244   26.3567    4.5368 H         1 UNK         0.0545 
    132 H132       37.3558   27.9226    1.9747 H         1 UNK         0.3459 
    133 H133       35.6841   28.4285    1.9974 H         1 UNK         0.3459 
    134 H134       35.8420   27.4710    6.3957 H         1 UNK         0.0616 
    135 H135       35.5280   29.0444    5.7143 H         1 UNK         0.0616 
    136 H136       33.0852   26.3436    8.2500 H         1 UNK         0.0634 
    137 H137       34.0827   25.7912    6.9307 H         1 UNK         0.0634 
@<TRIPOS>BOND
     1    1    2 1    
     2    1   72 1    
     3    1   73 1    
     4    1   74 1    
     5    2    3 2    
     6    2    4 am   BACKBONE|DICT|INTERRES
     7    4    5 1    
     8    4   75 1    
     9    5    6 1    
    10    5   35 1    
    11    5   76 1    
    12    6    7 1    
    13    6   77 1    
    14    6   78 1    
    15    7    8 1    
    16    8    9 1    
    17    8   79 1    
    18    8   80 1    
    19    9   10 ar   
    20    9   14 ar   
    21   10   11 ar   
    22   10   81 1    
    23   11   12 ar   
    24   11   71 1    
    25   12   13 ar   
    26   12   82 1    
    27   13   14 ar   
    28   13   15 1    
    29   14   83 1    
    30   15   16 1    
    31   15   84 1    
    32   15   85 1    
    33   16   17 1    
    34   17   18 1    
    35   17   86 1    
    36   17   87 1    
    37   18   19 1    
    38   18   37 1    
    39   18   88 1    
    40   19   20 am   BACKBONE|DICT|INTERRES
    41   19   89 1    
    42   20   21 2    
    43   20   22 1    
    44   22   23 1    
    45   22   24 1    
    46   22   90 1    
    47   23   91 1    
    48   23   92 1    
    49   23   93 1    
    50   24   25 am   BACKBONE|DICT|INTERRES
    51   24   94 1    
    52   25   26 2    
    53   25   27 1    
    54   27   28 1    
    55   27   29 1    
    56   27   95 1    
    57   28   96 1    
    58   28   97 1    
    59   28   98 1    
    60   29   30 am   BACKBONE|DICT|INTERRES
    61   29   99 1    
    62   30   31 2    
    63   30   32 1    
    64   32   33 1    
    65   32   34 1    
    66   32  100 1    
    67   33  101 1    
    68   33  102 1    
    69   33  103 1    
    70   34   35 am   BACKBONE|DICT|INTERRES
    71   34  104 1    
    72   35   36 2    
    73   37   38 2    
    74   37   39 am   BACKBONE|DICT|INTERRES
    75   39   40 1    
    76   39  105 1    
    77   40   41 1    
    78   40   42 1    
    79   40  106 1    
    80   41  107 1    
    81   41  108 1    
    82   41  109 1    
    83   42   43 2    
    84   42   44 am   BACKBONE|DICT|INTERRES
    85   44   45 1    
    86   44  110 1    
    87   45   46 1    
    88   45   47 1    
    89   45  111 1    
    90   46  112 1    
    91   46  113 1    
    92   46  114 1    
    93   47   48 2    
    94   47   49 am   BACKBONE|DICT|INTERRES
    95   49   50 1    
    96   49  115 1    
    97   50   51 1    
    98   50   52 1    
    99   50  116 1    
   100   51  117 1    
   101   51  118 1    
   102   51  119 1    
   103   52   53 2    
   104   52   54 am   BACKBONE|DICT|INTERRES
   105   54   55 1    
   106   54  120 1    
   107   55   56 1    
   108   55   57 1    
   109   55  121 1    
   110   56  122 1    
   111   56  123 1    
   112   56  124 1    
   113   57   58 2    
   114   57   59 am   BACKBONE|DICT|INTERRES
   115   59   60 1    
   116   59  125 1    
   117   60   61 1    
   118   60   62 1    
   119   60  126 1    
   120   61  127 1    
   121   61  128 1    
   122   61  129 1    
   123   62   63 2    
   124   62   64 am   BACKBONE|DICT|INTERRES
   125   64   65 1    
   126   64  130 1    
   127   65   66 1    
   128   65   69 1    
   129   65  131 1    
   130   66   67 am   BACKBONE|DICT|INTERRES
   131   66   68 2    
   132   67  132 1    
   133   67  133 1    
   134   69   70 1    
   135   69  134 1    
   136   69  135 1    
   137   70   71 1    
   138   71  136 1    
   139   71  137 1    
@<TRIPOS>SUBSTRUCTURE
     1 UNK         1 GROUP             0       ****    0 ROOT    
