@<TRIPOS>MOLECULE
3R136
137   139    1
SMALL
USER_CHARGES


@<TRIPOS>ATOM
      1 CA         28.5165   23.1443   -2.7745 C.3       0 UNK        -0.1979 
      2 C          28.5001   23.2954   -1.2615 C.2       0 UNK         0.4864 
      3 O          27.8900   24.2321   -0.7408 O.2       0 UNK        -0.5359 
      4 N          29.1661   22.3695   -0.5584 N.am      1 UNK        -0.4318 
      5 CA         29.3806   22.3837    0.8950 C.3       1 UNK         0.0824 
      6 C6         30.3375   21.2558    1.3637 C.3       12 UNK        -0.0944 
      7 S7         31.8611   21.1160    0.3663 S.3       12 UNK        -0.2672 
      8 C8         33.0159   22.1873    1.2807 C.3       12 UNK         0.0333 
      9 C9         32.6206   23.6562    1.2076 C.ar      12 UNK        -0.0807 
     10 C10        32.3206   24.3652    2.3752 C.ar      12 UNK        -0.0894 
     11 C11        31.9676   25.7165    2.3122 C.ar      12 UNK        -0.0804 
     12 C12        31.9202   26.3593    1.0723 C.ar      12 UNK        -0.0824 
     13 C13        32.1984   25.6568   -0.1046 C.ar      12 UNK        -0.0762 
     14 C14        32.5573   24.3081   -0.0289 C.ar      12 UNK        -0.0782 
     15 C15        32.1165   26.3527   -1.4570 C.3       12 UNK         0.0230 
     16 S16        30.4282   26.3080   -2.1442 S.3       12 UNK        -0.2608 
     17 C17        29.5793   27.4689   -1.0273 C.3       12 UNK        -0.0989 
     18 CA         28.2345   27.9931   -1.5878 C.3       5 UNK         0.0716 
     19 N          27.2065   26.9443   -1.5885 N.am      5 UNK        -0.4135 
     20 C          26.0175   27.0302   -2.2014 C.2       4 UNK         0.5031 
     21 O          25.7036   27.9465   -2.9620 O.2       4 UNK        -0.5229 
     22 CA         24.9765   25.9494   -1.8574 C.3       4 UNK         0.0329 
     23 CB         25.0230   24.7858   -2.8579 C.3       4 UNK        -0.2001 
     24 N          25.1165   25.4389   -0.4881 N.am      4 UNK        -0.4303 
     25 C          24.8233   26.1427    0.6147 C.2       3 UNK         0.5044 
     26 O          24.4162   27.3038    0.5720 O.2       3 UNK        -0.5152 
     27 CA         25.0582   25.4998    1.9976 C.3       3 UNK         0.0319 
     28 CB         23.8233   25.6524    2.9099 C.3       3 UNK        -0.2001 
     29 N          25.5291   24.1088    1.9888 N.am      3 UNK        -0.4354 
     30 C          24.8971   23.0074    1.5596 C.2       2 UNK         0.4964 
     31 O          23.7805   23.0175    1.0399 O.2       2 UNK        -0.5047 
     32 CA         25.6637   21.6762    1.7210 C.3       2 UNK         0.0288 
     33 CB         24.9210   20.4828    1.0900 C.3       2 UNK        -0.2113 
     34 N          27.0149   21.7411    1.1552 N.am      2 UNK        -0.4145 
     35 C          28.0751   22.3430    1.7154 C.2       1 UNK         0.5006 
     36 O          28.0380   22.8838    2.8222 O.2       1 UNK        -0.5103 
     37 C          27.8182   29.2545   -0.7923 C.2       5 UNK         0.5055 
     38 O          28.4643   30.2903   -0.9597 O.2       5 UNK        -0.5220 
     39 N          26.7955   29.1471    0.0724 N.am      6 UNK        -0.4450 
     40 CA         26.3957   30.1159    1.0994 C.3       6 UNK         0.0367 
     41 CB         25.9269   31.4481    0.4696 C.3       6 UNK        -0.1929 
     42 C          27.4897   30.2757    2.1772 C.2       6 UNK         0.5070 
     43 O          28.2495   29.3338    2.4185 O.2       6 UNK        -0.5237 
     44 N          27.5320   31.4383    2.8387 N.am      7 UNK        -0.4739 
     45 CA         28.5512   31.7824    3.8319 C.3       7 UNK         0.0276 
     46 CB         28.0391   32.9497    4.6918 C.3       7 UNK        -0.1927 
     47 C          29.8838   32.1539    3.1595 C.2       7 UNK         0.5013 
     48 O          29.8824   32.7150    2.0607 O.2       7 UNK        -0.5193 
     49 N          30.9900   31.8797    3.8556 N.am      8 UNK        -0.4253 
     50 CA         32.3504   32.2282    3.4596 C.3       8 UNK         0.0242 
     51 CB         32.9413   31.1150    2.5757 C.3       8 UNK        -0.2000 
     52 C          33.1752   32.4114    4.7353 C.2       8 UNK         0.4948 
     53 O          32.8766   31.7650    5.7432 O.2       8 UNK        -0.5275 
     54 N          34.2150   33.2533    4.6692 N.am      9 UNK        -0.4246 
     55 CA         35.0883   33.5940    5.8011 C.3       9 UNK         0.0261 
     56 CB         36.0652   34.7031    5.3773 C.3       9 UNK        -0.1959 
     57 C          35.8563   32.3974    6.3926 C.2       9 UNK         0.5033 
     58 O          36.1188   32.3843    7.5958 O.2       9 UNK        -0.5390 
     59 N          36.1843   31.4121    5.5461 N.am      10 UNK        -0.4215 
     60 CA         36.8073   30.1486    5.9463 C.3       10 UNK         0.0240 
     61 CB         37.4572   29.4975    4.7140 C.3       10 UNK        -0.1982 
     62 C          35.8198   29.1686    6.6075 C.2       10 UNK         0.4970 
     63 O          36.2589   28.3090    7.3727 O.2       10 UNK        -0.4916 
     64 N          34.5255   29.2950    6.2897 N.am      11 UNK        -0.4279 
     65 CA         33.4487   28.4298    6.7908 C.3       11 UNK         0.1003 
     66 C          32.7890   28.9947    8.0759 C.2       11 UNK         0.5709 
     67 N          32.6326   30.3065    8.2047 N.am      11 UNK        -0.7358 
     68 O          32.4241   28.2342    8.9691 O.2       11 UNK        -0.4999 
     69 C69        32.3834   28.1586    5.6976 C.3       12 UNK        -0.0954 
     70 S70        33.0950   27.3318    4.2363 S.3       12 UNK        -0.2268 
     71 C71        31.6298   26.4833    3.5807 C.3       12 UNK         0.0203 
     72 H72        29.4292   22.6550   -3.1139 H         1 UNK         0.0888 
     73 H73        27.6645   22.5522   -3.1063 H         1 UNK         0.0888 
     74 H74        28.4657   24.1220   -3.2533 H         1 UNK         0.0888 
     75 H75        29.6554   21.6348   -1.0501 H         1 UNK         0.3017 
     76 H76        29.8486   23.3431    1.1223 H         1 UNK         0.0873 
     77 H77        30.6105   21.3989    2.4112 H         1 UNK         0.0745 
     78 H78        29.8347   20.2877    1.3142 H         1 UNK         0.0745 
     79 H79        34.0139   22.0702    0.8562 H         1 UNK         0.0705 
     80 H80        33.0810   21.8462    2.3151 H         1 UNK         0.0705 
     81 H81        32.3630   23.8683    3.3349 H         1 UNK         0.1334 
     82 H82        31.6557   27.4067    1.0263 H         1 UNK         0.1417 
     83 H83        32.7772   23.7585   -0.9342 H         1 UNK         0.1562 
     84 H84        32.7930   25.8707   -2.1644 H         1 UNK         0.0748 
     85 H85        32.4564   27.3861   -1.3735 H         1 UNK         0.0748 
     86 H86        30.2681   28.2964   -0.8430 H         1 UNK         0.0940 
     87 H87        29.4212   26.9816   -0.0631 H         1 UNK         0.0940 
     88 H88        28.3889   28.3121   -2.6208 H         1 UNK         0.0703 
     89 H89        27.4196   26.0972   -1.0665 H         1 UNK         0.3081 
     90 H90        23.9916   26.4146   -1.9383 H         1 UNK         0.0719 
     91 H91        25.9717   24.2562   -2.8150 H         1 UNK         0.0809 
     92 H92        24.2277   24.0656   -2.6648 H         1 UNK         0.0809 
     93 H93        24.8951   25.1446   -3.8801 H         1 UNK         0.0809 
     94 H94        25.5152   24.5167   -0.3785 H         1 UNK         0.2990 
     95 H95        25.8681   26.0748    2.4493 H         1 UNK         0.0690 
     96 H96        24.0113   25.2466    3.9039 H         1 UNK         0.0788 
     97 H97        22.9504   25.1444    2.4989 H         1 UNK         0.0788 
     98 H98        23.5555   26.7022    3.0372 H         1 UNK         0.0788 
     99 H99        26.4582   23.9647    2.3752 H         1 UNK         0.2993 
    100 H100       25.7448   21.4870    2.7937 H         1 UNK         0.0949 
    101 H101       24.7936   20.6094    0.0140 H         1 UNK         0.0767 
    102 H102       25.4572   19.5484    1.2574 H         1 UNK         0.0767 
    103 H103       23.9277   20.3649    1.5254 H         1 UNK         0.0767 
    104 H104       27.1327   21.3563    0.2293 H         1 UNK         0.3013 
    105 H105       26.3003   28.2658    0.1169 H         1 UNK         0.3121 
    106 H106       25.5371   29.6727    1.6059 H         1 UNK         0.0774 
    107 H107       25.4031   32.0685    1.1973 H         1 UNK         0.0815 
    108 H108       26.7611   32.0318    0.0783 H         1 UNK         0.0815 
    109 H109       25.2321   31.2710   -0.3515 H         1 UNK         0.0815 
    110 H110       26.9026   32.1771    2.5609 H         1 UNK         0.2987 
    111 H111       28.7135   30.9175    4.4798 H         1 UNK         0.0949 
    112 H112       27.8614   33.8447    4.0940 H         1 UNK         0.0806 
    113 H113       27.1078   32.6924    5.1970 H         1 UNK         0.0806 
    114 H114       28.7625   33.2133    5.4647 H         1 UNK         0.0806 
    115 H115       30.9237   31.4827    4.7851 H         1 UNK         0.3010 
    116 H116       32.3411   33.1722    2.9101 H         1 UNK         0.0829 
    117 H117       32.3541   30.9777    1.6674 H         1 UNK         0.0813 
    118 H118       33.9601   31.3534    2.2685 H         1 UNK         0.0813 
    119 H119       32.9710   30.1587    3.0986 H         1 UNK         0.0813 
    120 H120       34.3973   33.7337    3.7990 H         1 UNK         0.3038 
    121 H121       34.4509   33.9886    6.5954 H         1 UNK         0.0769 
    122 H122       36.7116   34.3828    4.5592 H         1 UNK         0.0811 
    123 H123       36.7108   34.9926    6.2079 H         1 UNK         0.0811 
    124 H124       35.5344   35.5996    5.0563 H         1 UNK         0.0811 
    125 H125       35.9488   31.5207    4.5704 H         1 UNK         0.3204 
    126 H126       37.5941   30.3639    6.6727 H         1 UNK         0.0748 
    127 H127       37.9606   28.5681    4.9842 H         1 UNK         0.0771 
    128 H128       36.7195   29.2564    3.9472 H         1 UNK         0.0771 
    129 H129       38.2067   30.1514    4.2676 H         1 UNK         0.0771 
    130 H130       34.2275   30.0768    5.7239 H         1 UNK         0.2980 
    131 H131       33.8753   27.4622    7.0634 H         1 UNK         0.0545 
    132 H132       32.8553   30.9241    7.4292 H         1 UNK         0.3459 
    133 H133       32.2120   30.6770    9.0413 H         1 UNK         0.3459 
    134 H134       31.9119   29.0882    5.3737 H         1 UNK         0.0616 
    135 H135       31.5861   27.5296    6.0981 H         1 UNK         0.0616 
    136 H136       30.8472   27.2168    3.3780 H         1 UNK         0.0634 
    137 H137       31.2325   25.8046    4.3371 H         1 UNK         0.0634 
@<TRIPOS>BOND
     1    1    2 1    
     2    1   72 1    
     3    1   73 1    
     4    1   74 1    
     5    2    3 2    
     6    2    4 am   BACKBONE|DICT|INTERRES
     7    4    5 1    
     8    4   75 1    
     9    5    6 1    
    10    5   35 1    
    11    5   76 1    
    12    6    7 1    
    13    6   77 1    
    14    6   78 1    
    15    7    8 1    
    16    8    9 1    
    17    8   79 1    
    18    8   80 1    
    19    9   10 ar   
    20    9   14 ar   
    21   10   11 ar   
    22   10   81 1    
    23   11   12 ar   
    24   11   71 1    
    25   12   13 ar   
    26   12   82 1    
    27   13   14 ar   
    28   13   15 1    
    29   14   83 1    
    30   15   16 1    
    31   15   84 1    
    32   15   85 1    
    33   16   17 1    
    34   17   18 1    
    35   17   86 1    
    36   17   87 1    
    37   18   19 1    
    38   18   37 1    
    39   18   88 1    
    40   19   20 am   BACKBONE|DICT|INTERRES
    41   19   89 1    
    42   20   21 2    
    43   20   22 1    
    44   22   23 1    
    45   22   24 1    
    46   22   90 1    
    47   23   91 1    
    48   23   92 1    
    49   23   93 1    
    50   24   25 am   BACKBONE|DICT|INTERRES
    51   24   94 1    
    52   25   26 2    
    53   25   27 1    
    54   27   28 1    
    55   27   29 1    
    56   27   95 1    
    57   28   96 1    
    58   28   97 1    
    59   28   98 1    
    60   29   30 am   BACKBONE|DICT|INTERRES
    61   29   99 1    
    62   30   31 2    
    63   30   32 1    
    64   32   33 1    
    65   32   34 1    
    66   32  100 1    
    67   33  101 1    
    68   33  102 1    
    69   33  103 1    
    70   34   35 am   BACKBONE|DICT|INTERRES
    71   34  104 1    
    72   35   36 2    
    73   37   38 2    
    74   37   39 am   BACKBONE|DICT|INTERRES
    75   39   40 1    
    76   39  105 1    
    77   40   41 1    
    78   40   42 1    
    79   40  106 1    
    80   41  107 1    
    81   41  108 1    
    82   41  109 1    
    83   42   43 2    
    84   42   44 am   BACKBONE|DICT|INTERRES
    85   44   45 1    
    86   44  110 1    
    87   45   46 1    
    88   45   47 1    
    89   45  111 1    
    90   46  112 1    
    91   46  113 1    
    92   46  114 1    
    93   47   48 2    
    94   47   49 am   BACKBONE|DICT|INTERRES
    95   49   50 1    
    96   49  115 1    
    97   50   51 1    
    98   50   52 1    
    99   50  116 1    
   100   51  117 1    
   101   51  118 1    
   102   51  119 1    
   103   52   53 2    
   104   52   54 am   BACKBONE|DICT|INTERRES
   105   54   55 1    
   106   54  120 1    
   107   55   56 1    
   108   55   57 1    
   109   55  121 1    
   110   56  122 1    
   111   56  123 1    
   112   56  124 1    
   113   57   58 2    
   114   57   59 am   BACKBONE|DICT|INTERRES
   115   59   60 1    
   116   59  125 1    
   117   60   61 1    
   118   60   62 1    
   119   60  126 1    
   120   61  127 1    
   121   61  128 1    
   122   61  129 1    
   123   62   63 2    
   124   62   64 am   BACKBONE|DICT|INTERRES
   125   64   65 1    
   126   64  130 1    
   127   65   66 1    
   128   65   69 1    
   129   65  131 1    
   130   66   67 am   BACKBONE|DICT|INTERRES
   131   66   68 2    
   132   67  132 1    
   133   67  133 1    
   134   69   70 1    
   135   69  134 1    
   136   69  135 1    
   137   70   71 1    
   138   71  136 1    
   139   71  137 1    
@<TRIPOS>SUBSTRUCTURE
     1 UNK         1 GROUP             0       ****    0 ROOT    
