@<TRIPOS>MOLECULE
3R136
137   139    1
SMALL
USER_CHARGES


@<TRIPOS>ATOM
      1 CA         26.5231   19.9309   -2.2975 C.3       0 UNK        -0.1979 
      2 C          27.3542   21.0015   -1.6060 C.2       0 UNK         0.4864 
      3 O          27.8103   21.9369   -2.2632 O.2       0 UNK        -0.5359 
      4 N          27.5635   20.8621   -0.2899 N.am      1 UNK        -0.4318 
      5 CA         28.2745   21.8280    0.5520 C.3       1 UNK         0.0824 
      6 C6         28.7630   21.1615    1.8679 C.3       12 UNK        -0.0944 
      7 S7         29.6058   22.2904    3.0279 S.3       12 UNK        -0.2672 
      8 C8         31.3312   22.1925    2.4671 C.3       12 UNK         0.0333 
      9 C9         31.9862   23.5647    2.5053 C.ar      12 UNK        -0.0807 
     10 C10        32.4032   24.1136    3.7222 C.ar      12 UNK        -0.0894 
     11 C11        33.0166   25.3694    3.7598 C.ar      12 UNK        -0.0804 
     12 C12        33.2113   26.0761    2.5685 C.ar      12 UNK        -0.0824 
     13 C13        32.7904   25.5418    1.3478 C.ar      12 UNK        -0.0762 
     14 C14        32.1817   24.2833    1.3218 C.ar      12 UNK        -0.0782 
     15 C15        33.0182   26.3183    0.0591 C.3       12 UNK         0.0230 
     16 S16        31.7620   27.6111   -0.1878 S.3       12 UNK        -0.2608 
     17 C17        30.3153   26.6231   -0.6999 C.3       12 UNK        -0.0989 
     18 CA         28.9663   27.3176   -0.3688 C.3       5 UNK         0.0716 
     19 N          27.8715   26.7914   -1.1731 N.am      5 UNK        -0.4135 
     20 C          27.5953   27.1118   -2.4409 C.2       4 UNK         0.5031 
     21 O          28.2774   27.8791   -3.1216 O.2       4 UNK        -0.5229 
     22 CA         26.3354   26.4757   -3.0555 C.3       4 UNK         0.0329 
     23 CB         26.6844   25.1481   -3.7450 C.3       4 UNK        -0.2001 
     24 N          25.2848   26.2414   -2.0628 N.am      4 UNK        -0.4303 
     25 C          24.5616   27.1988   -1.4692 C.2       3 UNK         0.5044 
     26 O          24.6295   28.3907   -1.7712 O.2       3 UNK        -0.5152 
     27 CA         23.6211   26.7678   -0.3293 C.3       3 UNK         0.0319 
     28 CB         22.2975   26.1969   -0.8758 C.3       3 UNK        -0.2001 
     29 N          24.2428   25.8701    0.6573 N.am      3 UNK        -0.4354 
     30 C          24.6488   24.6019    0.5029 C.2       2 UNK         0.4964 
     31 O          24.5327   23.9588   -0.5433 O.2       2 UNK        -0.5047 
     32 CA         25.2809   23.9467    1.7416 C.3       2 UNK         0.0288 
     33 CB         24.1926   23.3629    2.6572 C.3       2 UNK        -0.2113 
     34 N          26.2299   22.8865    1.3976 N.am      2 UNK        -0.4145 
     35 C          27.4042   23.0824    0.7808 C.2       1 UNK         0.5006 
     36 O          27.8041   24.1831    0.3989 O.2       1 UNK        -0.5103 
     37 C          28.5276   27.2534    1.1101 C.2       5 UNK         0.5055 
     38 O          27.3492   27.4840    1.3964 O.2       5 UNK        -0.5220 
     39 N          29.4714   26.9581    2.0164 N.am      6 UNK        -0.4450 
     40 CA         29.3206   26.8768    3.4762 C.3       6 UNK         0.0367 
     41 CB         28.2769   25.8121    3.8740 C.3       6 UNK        -0.1929 
     42 C          29.0458   28.2394    4.1456 C.2       6 UNK         0.5070 
     43 O          28.5271   28.2771    5.2630 O.2       6 UNK        -0.5237 
     44 N          29.3913   29.3370    3.4601 N.am      7 UNK        -0.4739 
     45 CA         29.2635   30.7037    3.9609 C.3       7 UNK         0.0276 
     46 CB         29.2624   31.6723    2.7668 C.3       7 UNK        -0.1927 
     47 C          30.4199   31.0386    4.9111 C.2       7 UNK         0.5013 
     48 O          31.5586   30.6549    4.6365 O.2       7 UNK        -0.5193 
     49 N          30.1361   31.8197    5.9616 N.am      8 UNK        -0.4253 
     50 CA         31.1178   32.2680    6.9598 C.3       8 UNK         0.0242 
     51 CB         30.3919   33.0392    8.0743 C.3       8 UNK        -0.2000 
     52 C          32.2733   33.1116    6.3853 C.2       8 UNK         0.4948 
     53 O          33.3524   33.1334    6.9760 O.2       8 UNK        -0.5275 
     54 N          32.0353   33.7722    5.2435 N.am      9 UNK        -0.4246 
     55 CA         33.0470   34.4962    4.4724 C.3       9 UNK         0.0261 
     56 CB         32.3445   35.5233    3.5688 C.3       9 UNK        -0.1959 
     57 C          33.9488   33.5723    3.6300 C.2       9 UNK         0.5033 
     58 O          35.0481   33.9934    3.2665 O.2       9 UNK        -0.5390 
     59 N          33.4780   32.3571    3.3124 N.am      10 UNK        -0.4215 
     60 CA         34.2134   31.3590    2.5342 C.3       10 UNK         0.0240 
     61 CB         33.2376   30.5671    1.6454 C.3       10 UNK        -0.1982 
     62 C          34.9974   30.4134    3.4533 C.2       10 UNK         0.4970 
     63 O          36.1600   30.1238    3.1670 O.2       10 UNK        -0.4916 
     64 N          34.3505   29.9461    4.5286 N.am      11 UNK        -0.4279 
     65 CA         34.9421   29.0610    5.5411 C.3       11 UNK         0.1003 
     66 C          36.0373   29.7516    6.4010 C.2       11 UNK         0.5709 
     67 N          36.9260   28.9743    7.0060 N.am      11 UNK        -0.7358 
     68 O          36.0790   30.9710    6.5507 O.2       11 UNK        -0.4999 
     69 C69        33.8588   28.3997    6.4363 C.3       12 UNK        -0.0954 
     70 S70        32.6004   27.4921    5.4791 S.3       12 UNK        -0.2268 
     71 C71        33.4941   25.9588    5.0782 C.3       12 UNK         0.0203 
     72 H72        26.2012   19.1527   -1.6057 H         1 UNK         0.0888 
     73 H73        25.6344   20.3777   -2.7426 H         1 UNK         0.0888 
     74 H74        27.1026   19.4604   -3.0913 H         1 UNK         0.0888 
     75 H75        27.1737   20.0610    0.1862 H         1 UNK         0.3017 
     76 H76        29.1623   22.1564    0.0066 H         1 UNK         0.0873 
     77 H77        29.4315   20.3299    1.6385 H         1 UNK         0.0745 
     78 H78        27.9205   20.7198    2.4028 H         1 UNK         0.0745 
     79 H79        31.3767   21.7826    1.4570 H         1 UNK         0.0705 
     80 H80        31.8789   21.4979    3.1056 H         1 UNK         0.0705 
     81 H81        32.2497   23.5590    4.6381 H         1 UNK         0.1334 
     82 H82        33.6874   27.0475    2.5945 H         1 UNK         0.1417 
     83 H83        31.8634   23.8592    0.3791 H         1 UNK         0.1562 
     84 H84        33.0297   25.6492   -0.8029 H         1 UNK         0.0748 
     85 H85        34.0022   26.7888    0.0896 H         1 UNK         0.0748 
     86 H86        30.3434   25.6191   -0.2754 H         1 UNK         0.0940 
     87 H87        30.4074   26.4826   -1.7781 H         1 UNK         0.0940 
     88 H88        29.0573   28.3804   -0.6035 H         1 UNK         0.0703 
     89 H89        27.2664   26.1473   -0.6785 H         1 UNK         0.3081 
     90 H90        25.9475   27.1638   -3.8096 H         1 UNK         0.0719 
     91 H91        27.0644   24.4146   -3.0327 H         1 UNK         0.0809 
     92 H92        25.8145   24.7156   -4.2395 H         1 UNK         0.0809 
     93 H93        27.4524   25.2925   -4.5061 H         1 UNK         0.0809 
     94 H94        25.1432   25.2861   -1.7430 H         1 UNK         0.2990 
     95 H95        23.3741   27.6748    0.2250 H         1 UNK         0.0690 
     96 H96        22.4512   25.2978   -1.4730 H         1 UNK         0.0788 
     97 H97        21.7972   26.9254   -1.5152 H         1 UNK         0.0788 
     98 H98        21.6095   25.9489   -0.0676 H         1 UNK         0.0788 
     99 H99        24.4239   26.3050    1.5522 H         1 UNK         0.2993 
    100 H100       25.8301   24.7139    2.2915 H         1 UNK         0.0949 
    101 H101       23.6239   22.5778    2.1567 H         1 UNK         0.0767 
    102 H102       24.6226   22.9403    3.5657 H         1 UNK         0.0767 
    103 H103       23.4831   24.1323    2.9654 H         1 UNK         0.0767 
    104 H104       25.9595   21.9447    1.6361 H         1 UNK         0.3013 
    105 H105       30.4101   26.7996    1.6703 H         1 UNK         0.3121 
    106 H106       30.2867   26.5398    3.8519 H         1 UNK         0.0774 
    107 H107       28.3656   25.5563    4.9302 H         1 UNK         0.0815 
    108 H108       27.2585   26.1647    3.7104 H         1 UNK         0.0815 
    109 H109       28.4074   24.8949    3.3030 H         1 UNK         0.0815 
    110 H110       29.8541   29.2184    2.5718 H         1 UNK         0.2987 
    111 H111       28.3155   30.7994    4.4954 H         1 UNK         0.0949 
    112 H112       30.1948   31.6231    2.2025 H         1 UNK         0.0806 
    113 H113       28.4446   31.4521    2.0801 H         1 UNK         0.0806 
    114 H114       29.1350   32.7038    3.0977 H         1 UNK         0.0806 
    115 H115       29.1798   32.1108    6.1083 H         1 UNK         0.3010 
    116 H116       31.5655   31.3734    7.3983 H         1 UNK         0.0829 
    117 H117       31.0927   33.3615    8.8460 H         1 UNK         0.0813 
    118 H118       29.8963   33.9322    7.6914 H         1 UNK         0.0813 
    119 H119       29.6400   32.4191    8.5628 H         1 UNK         0.0813 
    120 H120       31.1072   33.7250    4.8496 H         1 UNK         0.3038 
    121 H121       33.6919   35.0393    5.1669 H         1 UNK         0.0769 
    122 H122       33.0723   36.1051    3.0012 H         1 UNK         0.0811 
    123 H123       31.7545   36.2293    4.1536 H         1 UNK         0.0811 
    124 H124       31.6801   35.0429    2.8493 H         1 UNK         0.0811 
    125 H125       32.6066   32.0423    3.7252 H         1 UNK         0.3204 
    126 H126       34.9281   31.8596    1.8772 H         1 UNK         0.0748 
    127 H127       33.7746   29.8469    1.0266 H         1 UNK         0.0771 
    128 H128       32.5080   30.0066    2.2308 H         1 UNK         0.0771 
    129 H129       32.6902   31.2263    0.9717 H         1 UNK         0.0771 
    130 H130       33.3769   30.2005    4.6724 H         1 UNK         0.2980 
    131 H131       35.4491   28.2678    4.9897 H         1 UNK         0.0545 
    132 H132       37.6388   29.4010    7.5770 H         1 UNK         0.3459 
    133 H133       36.9032   27.9721    6.9008 H         1 UNK         0.3459 
    134 H134       34.3094   27.7094    7.1517 H         1 UNK         0.0616 
    135 H135       33.3437   29.1600    7.0262 H         1 UNK         0.0616 
    136 H136       34.5646   26.1490    5.0027 H         1 UNK         0.0634 
    137 H137       33.3641   25.2510    5.8981 H         1 UNK         0.0634 
@<TRIPOS>BOND
     1    1    2 1    
     2    1   72 1    
     3    1   73 1    
     4    1   74 1    
     5    2    3 2    
     6    2    4 am   BACKBONE|DICT|INTERRES
     7    4    5 1    
     8    4   75 1    
     9    5    6 1    
    10    5   35 1    
    11    5   76 1    
    12    6    7 1    
    13    6   77 1    
    14    6   78 1    
    15    7    8 1    
    16    8    9 1    
    17    8   79 1    
    18    8   80 1    
    19    9   10 ar   
    20    9   14 ar   
    21   10   11 ar   
    22   10   81 1    
    23   11   12 ar   
    24   11   71 1    
    25   12   13 ar   
    26   12   82 1    
    27   13   14 ar   
    28   13   15 1    
    29   14   83 1    
    30   15   16 1    
    31   15   84 1    
    32   15   85 1    
    33   16   17 1    
    34   17   18 1    
    35   17   86 1    
    36   17   87 1    
    37   18   19 1    
    38   18   37 1    
    39   18   88 1    
    40   19   20 am   BACKBONE|DICT|INTERRES
    41   19   89 1    
    42   20   21 2    
    43   20   22 1    
    44   22   23 1    
    45   22   24 1    
    46   22   90 1    
    47   23   91 1    
    48   23   92 1    
    49   23   93 1    
    50   24   25 am   BACKBONE|DICT|INTERRES
    51   24   94 1    
    52   25   26 2    
    53   25   27 1    
    54   27   28 1    
    55   27   29 1    
    56   27   95 1    
    57   28   96 1    
    58   28   97 1    
    59   28   98 1    
    60   29   30 am   BACKBONE|DICT|INTERRES
    61   29   99 1    
    62   30   31 2    
    63   30   32 1    
    64   32   33 1    
    65   32   34 1    
    66   32  100 1    
    67   33  101 1    
    68   33  102 1    
    69   33  103 1    
    70   34   35 am   BACKBONE|DICT|INTERRES
    71   34  104 1    
    72   35   36 2    
    73   37   38 2    
    74   37   39 am   BACKBONE|DICT|INTERRES
    75   39   40 1    
    76   39  105 1    
    77   40   41 1    
    78   40   42 1    
    79   40  106 1    
    80   41  107 1    
    81   41  108 1    
    82   41  109 1    
    83   42   43 2    
    84   42   44 am   BACKBONE|DICT|INTERRES
    85   44   45 1    
    86   44  110 1    
    87   45   46 1    
    88   45   47 1    
    89   45  111 1    
    90   46  112 1    
    91   46  113 1    
    92   46  114 1    
    93   47   48 2    
    94   47   49 am   BACKBONE|DICT|INTERRES
    95   49   50 1    
    96   49  115 1    
    97   50   51 1    
    98   50   52 1    
    99   50  116 1    
   100   51  117 1    
   101   51  118 1    
   102   51  119 1    
   103   52   53 2    
   104   52   54 am   BACKBONE|DICT|INTERRES
   105   54   55 1    
   106   54  120 1    
   107   55   56 1    
   108   55   57 1    
   109   55  121 1    
   110   56  122 1    
   111   56  123 1    
   112   56  124 1    
   113   57   58 2    
   114   57   59 am   BACKBONE|DICT|INTERRES
   115   59   60 1    
   116   59  125 1    
   117   60   61 1    
   118   60   62 1    
   119   60  126 1    
   120   61  127 1    
   121   61  128 1    
   122   61  129 1    
   123   62   63 2    
   124   62   64 am   BACKBONE|DICT|INTERRES
   125   64   65 1    
   126   64  130 1    
   127   65   66 1    
   128   65   69 1    
   129   65  131 1    
   130   66   67 am   BACKBONE|DICT|INTERRES
   131   66   68 2    
   132   67  132 1    
   133   67  133 1    
   134   69   70 1    
   135   69  134 1    
   136   69  135 1    
   137   70   71 1    
   138   71  136 1    
   139   71  137 1    
@<TRIPOS>SUBSTRUCTURE
     1 UNK         1 GROUP             0       ****    0 ROOT    
