@<TRIPOS>MOLECULE
3R136
137   139    1
SMALL
USER_CHARGES


@<TRIPOS>ATOM
      1 CA         28.8495   19.9729   -1.8065 C.3       0 UNK        -0.1979 
      2 C          28.8355   21.1334   -0.8239 C.2       0 UNK         0.4864 
      3 O          28.5288   22.2610   -1.2114 O.2       0 UNK        -0.5359 
      4 N          29.1493   20.8706    0.4520 N.am      1 UNK        -0.4318 
      5 CA         29.2206   21.8515    1.5444 C.3       1 UNK         0.0824 
      6 C6         30.1958   21.3668    2.6510 C.3       12 UNK        -0.0944 
      7 S7         30.9684   22.7298    3.5904 S.3       12 UNK        -0.2672 
      8 C8         32.5917   22.8996    2.7786 C.3       12 UNK         0.0333 
      9 C9         32.5659   23.9639    1.6908 C.ar      12 UNK        -0.0807 
     10 C10        33.0115   25.2584    1.9715 C.ar      12 UNK        -0.0894 
     11 C11        33.0007   26.2535    0.9841 C.ar      12 UNK        -0.0804 
     12 C12        32.5333   25.9257   -0.2934 C.ar      12 UNK        -0.0824 
     13 C13        32.0802   24.6348   -0.5915 C.ar      12 UNK        -0.0762 
     14 C14        32.1154   23.6559    0.4051 C.ar      12 UNK        -0.0782 
     15 C15        31.5977   24.2592   -1.9915 C.3       12 UNK         0.0230 
     16 S16        30.5900   25.5368   -2.8189 S.3       12 UNK        -0.2608 
     17 C17        29.0670   25.5501   -1.8140 C.3       12 UNK        -0.0989 
     18 CA         28.6094   26.9953   -1.4882 C.3       5 UNK         0.0716 
     19 N          27.1693   27.0737   -1.2368 N.am      5 UNK        -0.4135 
     20 C          26.3825   28.0956   -1.6044 C.2       4 UNK         0.5031 
     21 O          26.7679   29.0536   -2.2753 O.2       4 UNK        -0.5229 
     22 CA         24.9098   28.0492   -1.1524 C.3       4 UNK         0.0329 
     23 CB         24.0442   27.3496   -2.2128 C.3       4 UNK        -0.2001 
     24 N          24.7245   27.3831    0.1384 N.am      4 UNK        -0.4303 
     25 C          25.1411   27.8728    1.3150 C.2       3 UNK         0.5044 
     26 O          25.6200   28.9974    1.4526 O.2       3 UNK        -0.5152 
     27 CA         25.0278   26.9497    2.5454 C.3       3 UNK         0.0319 
     28 CB         23.8027   27.3339    3.3905 C.3       3 UNK        -0.2001 
     29 N          24.9740   25.5101    2.2468 N.am      3 UNK        -0.4354 
     30 C          25.9118   24.8215    1.5825 C.2       2 UNK         0.4964 
     31 O          26.9051   25.3420    1.0684 O.2       2 UNK        -0.5047 
     32 CA         25.6701   23.3175    1.3994 C.3       2 UNK         0.0288 
     33 CB         24.7281   23.0697    0.2097 C.3       2 UNK        -0.2113 
     34 N          26.9436   22.6547    1.1330 N.am      2 UNK        -0.4145 
     35 C          27.8211   22.2631    2.0634 C.2       1 UNK         0.5006 
     36 O          27.5567   22.2237    3.2670 O.2       1 UNK        -0.5103 
     37 C          29.3686   27.5865   -0.2887 C.2       5 UNK         0.5055 
     38 O          30.2106   28.4685   -0.4672 O.2       5 UNK        -0.5220 
     39 N          29.0150   27.1378    0.9237 N.am      6 UNK        -0.4450 
     40 CA         29.5722   27.5761    2.2036 C.3       6 UNK         0.0367 
     41 CB         29.3598   26.4602    3.2431 C.3       6 UNK        -0.1929 
     42 C          29.0123   28.9391    2.6608 C.2       6 UNK         0.5070 
     43 O          28.6110   29.0887    3.8151 O.2       6 UNK        -0.5237 
     44 N          28.9860   29.9078    1.7386 N.am      7 UNK        -0.4739 
     45 CA         28.4813   31.2649    1.9508 C.3       7 UNK         0.0276 
     46 CB         27.9245   31.7950    0.6192 C.3       7 UNK        -0.1927 
     47 C          29.5566   32.2167    2.5017 C.2       7 UNK         0.5013 
     48 O          29.2074   33.2630    3.0506 O.2       7 UNK        -0.5193 
     49 N          30.8367   31.8571    2.3306 N.am      8 UNK        -0.4253 
     50 CA         31.9918   32.6021    2.8324 C.3       8 UNK         0.0242 
     51 CB         33.2660   32.0523    2.1699 C.3       8 UNK        -0.2000 
     52 C          32.1029   32.4957    4.3600 C.2       8 UNK         0.4948 
     53 O          31.7976   31.4399    4.9178 O.2       8 UNK        -0.5275 
     54 N          32.6016   33.5589    5.0053 N.am      9 UNK        -0.4246 
     55 CA         32.7771   33.6487    6.4620 C.3       9 UNK         0.0261 
     56 CB         33.2465   35.0651    6.8326 C.3       9 UNK        -0.1959 
     57 C          33.7308   32.5933    7.0548 C.2       9 UNK         0.5033 
     58 O          33.5515   32.1982    8.2073 O.2       9 UNK        -0.5390 
     59 N          34.7085   32.1444    6.2560 N.am      10 UNK        -0.4215 
     60 CA         35.6233   31.0519    6.5939 C.3       10 UNK         0.0240 
     61 CB         36.8597   31.1356    5.6833 C.3       10 UNK        -0.1982 
     62 C          34.9748   29.6583    6.4842 C.2       10 UNK         0.4970 
     63 O          35.4634   28.7263    7.1244 O.2       10 UNK        -0.4916 
     64 N          33.9171   29.5329    5.6731 N.am      11 UNK        -0.4279 
     65 CA         33.1844   28.2829    5.4313 C.3       11 UNK         0.1003 
     66 C          31.9374   28.1509    6.3438 C.2       11 UNK         0.5709 
     67 N          31.2124   29.2286    6.6140 N.am      11 UNK        -0.7358 
     68 O          31.6331   27.0603    6.8199 O.2       11 UNK        -0.4999 
     69 C69        32.7906   28.1382    3.9400 C.3       12 UNK        -0.0954 
     70 S70        34.2492   28.0341    2.8496 S.3       12 UNK        -0.2268 
     71 C71        33.4830   27.6889    1.2265 C.3       12 UNK         0.0203 
     72 H72        29.1414   19.0374   -1.3296 H         1 UNK         0.0888 
     73 H73        27.8595   19.8388   -2.2414 H         1 UNK         0.0888 
     74 H74        29.5521   20.1759   -2.6142 H         1 UNK         0.0888 
     75 H75        29.3467   19.9157    0.7168 H         1 UNK         0.3017 
     76 H76        29.6349   22.7675    1.1208 H         1 UNK         0.0873 
     77 H77        29.6952   20.6953    3.3512 H         1 UNK         0.0745 
     78 H78        30.9949   20.7679    2.2123 H         1 UNK         0.0745 
     79 H79        32.9260   21.9458    2.3689 H         1 UNK         0.0705 
     80 H80        33.3269   23.1663    3.5394 H         1 UNK         0.0705 
     81 H81        33.3727   25.4722    2.9661 H         1 UNK         0.1334 
     82 H82        32.5233   26.6859   -1.0627 H         1 UNK         0.1417 
     83 H83        31.7926   22.6484    0.1810 H         1 UNK         0.1562 
     84 H84        31.0198   23.3340   -1.9641 H         1 UNK         0.0748 
     85 H85        32.4721   24.0560   -2.6107 H         1 UNK         0.0748 
     86 H86        29.1930   24.9493   -0.9104 H         1 UNK         0.0940 
     87 H87        28.3019   25.0370   -2.3991 H         1 UNK         0.0940 
     88 H88        28.8367   27.6200   -2.3551 H         1 UNK         0.0703 
     89 H89        26.7881   26.3611   -0.6246 H         1 UNK         0.3081 
     90 H90        24.5627   29.0802   -1.0538 H         1 UNK         0.0719 
     91 H91        24.1438   27.8403   -3.1821 H         1 UNK         0.0809 
     92 H92        22.9878   27.3782   -1.9450 H         1 UNK         0.0809 
     93 H93        24.3300   26.3053   -2.3456 H         1 UNK         0.0809 
     94 H94        24.3153   26.4606    0.1248 H         1 UNK         0.2990 
     95 H95        25.9224   27.1209    3.1480 H         1 UNK         0.0690 
     96 H96        23.7702   26.7708    4.3234 H         1 UNK         0.0788 
     97 H97        22.8700   27.1536    2.8544 H         1 UNK         0.0788 
     98 H98        23.8271   28.3921    3.6555 H         1 UNK         0.0788 
     99 H99        24.1754   25.0096    2.6110 H         1 UNK         0.2993 
    100 H100       25.2242   22.9095    2.3092 H         1 UNK         0.0949 
    101 H101       23.7515   23.5260    0.3769 H         1 UNK         0.0767 
    102 H102       25.1292   23.4826   -0.7173 H         1 UNK         0.0767 
    103 H103       24.5623   22.0033    0.0543 H         1 UNK         0.0767 
    104 H104       27.2798   22.6805    0.1737 H         1 UNK         0.3013 
    105 H105       28.2715   26.4431    0.9839 H         1 UNK         0.3121 
    106 H106       30.6453   27.7050    2.0729 H         1 UNK         0.0774 
    107 H107       29.8021   26.7245    4.2044 H         1 UNK         0.0815 
    108 H108       28.3009   26.2650    3.4141 H         1 UNK         0.0815 
    109 H109       29.8244   25.5285    2.9200 H         1 UNK         0.0815 
    110 H110       29.3431   29.6825    0.8148 H         1 UNK         0.2987 
    111 H111       27.6637   31.2334    2.6748 H         1 UNK         0.0949 
    112 H112       27.1241   31.1560    0.2444 H         1 UNK         0.0806 
    113 H113       27.5090   32.7964    0.7401 H         1 UNK         0.0806 
    114 H114       28.6963   31.8506   -0.1494 H         1 UNK         0.0806 
    115 H115       31.0202   30.9653    1.8973 H         1 UNK         0.3010 
    116 H116       31.8709   33.6515    2.5549 H         1 UNK         0.0829 
    117 H117       33.2141   32.1303    1.0838 H         1 UNK         0.0813 
    118 H118       34.1477   32.6092    2.4897 H         1 UNK         0.0813 
    119 H119       33.4339   31.0044    2.4219 H         1 UNK         0.0813 
    120 H120       32.8436   34.3820    4.4713 H         1 UNK         0.3038 
    121 H121       31.7977   33.4849    6.9167 H         1 UNK         0.0769 
    122 H122       34.2093   35.3042    6.3794 H         1 UNK         0.0811 
    123 H123       33.3607   35.1680    7.9128 H         1 UNK         0.0811 
    124 H124       32.5268   35.8191    6.5132 H         1 UNK         0.0811 
    125 H125       34.7936   32.5458    5.3338 H         1 UNK         0.3204 
    126 H126       35.9515   31.1816    7.6276 H         1 UNK         0.0748 
    127 H127       37.5803   30.3549    5.9315 H         1 UNK         0.0771 
    128 H128       36.5969   31.0128    4.6316 H         1 UNK         0.0771 
    129 H129       37.3711   32.0921    5.7939 H         1 UNK         0.0771 
    130 H130       33.5088   30.3589    5.2555 H         1 UNK         0.2980 
    131 H131       33.8331   27.4381    5.6721 H         1 UNK         0.0545 
    132 H132       31.4122   30.1061    6.1403 H         1 UNK         0.3459 
    133 H133       30.4019   29.1468    7.2053 H         1 UNK         0.3459 
    134 H134       32.1720   28.9789    3.6210 H         1 UNK         0.0616 
    135 H135       32.1906   27.2396    3.7996 H         1 UNK         0.0616 
    136 H136       34.2251   27.9293    0.4640 H         1 UNK         0.0634 
    137 H137       32.6561   28.3824    1.0701 H         1 UNK         0.0634 
@<TRIPOS>BOND
     1    1    2 1    
     2    1   72 1    
     3    1   73 1    
     4    1   74 1    
     5    2    3 2    
     6    2    4 am   BACKBONE|DICT|INTERRES
     7    4    5 1    
     8    4   75 1    
     9    5    6 1    
    10    5   35 1    
    11    5   76 1    
    12    6    7 1    
    13    6   77 1    
    14    6   78 1    
    15    7    8 1    
    16    8    9 1    
    17    8   79 1    
    18    8   80 1    
    19    9   10 ar   
    20    9   14 ar   
    21   10   11 ar   
    22   10   81 1    
    23   11   12 ar   
    24   11   71 1    
    25   12   13 ar   
    26   12   82 1    
    27   13   14 ar   
    28   13   15 1    
    29   14   83 1    
    30   15   16 1    
    31   15   84 1    
    32   15   85 1    
    33   16   17 1    
    34   17   18 1    
    35   17   86 1    
    36   17   87 1    
    37   18   19 1    
    38   18   37 1    
    39   18   88 1    
    40   19   20 am   BACKBONE|DICT|INTERRES
    41   19   89 1    
    42   20   21 2    
    43   20   22 1    
    44   22   23 1    
    45   22   24 1    
    46   22   90 1    
    47   23   91 1    
    48   23   92 1    
    49   23   93 1    
    50   24   25 am   BACKBONE|DICT|INTERRES
    51   24   94 1    
    52   25   26 2    
    53   25   27 1    
    54   27   28 1    
    55   27   29 1    
    56   27   95 1    
    57   28   96 1    
    58   28   97 1    
    59   28   98 1    
    60   29   30 am   BACKBONE|DICT|INTERRES
    61   29   99 1    
    62   30   31 2    
    63   30   32 1    
    64   32   33 1    
    65   32   34 1    
    66   32  100 1    
    67   33  101 1    
    68   33  102 1    
    69   33  103 1    
    70   34   35 am   BACKBONE|DICT|INTERRES
    71   34  104 1    
    72   35   36 2    
    73   37   38 2    
    74   37   39 am   BACKBONE|DICT|INTERRES
    75   39   40 1    
    76   39  105 1    
    77   40   41 1    
    78   40   42 1    
    79   40  106 1    
    80   41  107 1    
    81   41  108 1    
    82   41  109 1    
    83   42   43 2    
    84   42   44 am   BACKBONE|DICT|INTERRES
    85   44   45 1    
    86   44  110 1    
    87   45   46 1    
    88   45   47 1    
    89   45  111 1    
    90   46  112 1    
    91   46  113 1    
    92   46  114 1    
    93   47   48 2    
    94   47   49 am   BACKBONE|DICT|INTERRES
    95   49   50 1    
    96   49  115 1    
    97   50   51 1    
    98   50   52 1    
    99   50  116 1    
   100   51  117 1    
   101   51  118 1    
   102   51  119 1    
   103   52   53 2    
   104   52   54 am   BACKBONE|DICT|INTERRES
   105   54   55 1    
   106   54  120 1    
   107   55   56 1    
   108   55   57 1    
   109   55  121 1    
   110   56  122 1    
   111   56  123 1    
   112   56  124 1    
   113   57   58 2    
   114   57   59 am   BACKBONE|DICT|INTERRES
   115   59   60 1    
   116   59  125 1    
   117   60   61 1    
   118   60   62 1    
   119   60  126 1    
   120   61  127 1    
   121   61  128 1    
   122   61  129 1    
   123   62   63 2    
   124   62   64 am   BACKBONE|DICT|INTERRES
   125   64   65 1    
   126   64  130 1    
   127   65   66 1    
   128   65   69 1    
   129   65  131 1    
   130   66   67 am   BACKBONE|DICT|INTERRES
   131   66   68 2    
   132   67  132 1    
   133   67  133 1    
   134   69   70 1    
   135   69  134 1    
   136   69  135 1    
   137   70   71 1    
   138   71  136 1    
   139   71  137 1    
@<TRIPOS>SUBSTRUCTURE
     1 UNK         1 GROUP             0       ****    0 ROOT    
