@<TRIPOS>MOLECULE
3R136
137   139    1
SMALL
USER_CHARGES


@<TRIPOS>ATOM
      1 CA         29.0200   16.7350   -0.0873 C.3       0 UNK        -0.1979 
      2 C          27.9271   17.7925   -0.0345 C.2       0 UNK         0.4864 
      3 O          26.7733   17.4668    0.2507 O.2       0 UNK        -0.5359 
      4 N          28.2787   19.0532   -0.3161 N.am      1 UNK        -0.4318 
      5 CA         27.3859   20.2127   -0.2404 C.3       1 UNK         0.0824 
      6 C6         27.9488   21.4211   -1.0362 C.3       12 UNK        -0.0944 
      7 S7         29.6515   21.9100   -0.5774 S.3       12 UNK        -0.2672 
      8 C8         29.3199   23.4273    0.3640 C.3       12 UNK         0.0333 
      9 C9         30.5877   23.9919    0.9837 C.ar      12 UNK        -0.0807 
     10 C10        30.8799   23.7478    2.3294 C.ar      12 UNK        -0.0894 
     11 C11        32.0614   24.2323    2.9001 C.ar      12 UNK        -0.0804 
     12 C12        32.9452   24.9762    2.1117 C.ar      12 UNK        -0.0824 
     13 C13        32.6485   25.2594    0.7747 C.ar      12 UNK        -0.0762 
     14 C14        31.4727   24.7515    0.2123 C.ar      12 UNK        -0.0782 
     15 C15        33.6259   26.0758   -0.0649 C.3       12 UNK         0.0230 
     16 S16        32.8587   27.5220   -0.8715 S.3       12 UNK        -0.2608 
     17 C17        32.3919   28.5706    0.5490 C.3       12 UNK        -0.0989 
     18 CA         31.0311   29.2759    0.3282 C.3       5 UNK         0.0716 
     19 N          29.9493   28.3188    0.0514 N.am      5 UNK        -0.4135 
     20 C          28.7020   28.6395   -0.3264 C.2       4 UNK         0.5031 
     21 O          28.2827   29.7936   -0.4176 O.2       4 UNK        -0.5229 
     22 CA         27.7545   27.4656   -0.5854 C.3       4 UNK         0.0329 
     23 CB         28.2263   26.6092   -1.7792 C.3       4 UNK        -0.2001 
     24 N          27.6238   26.6759    0.6403 N.am      4 UNK        -0.4303 
     25 C          26.6523   25.7931    0.8905 C.2       3 UNK         0.5044 
     26 O          25.7862   25.4600    0.0774 O.2       3 UNK        -0.5152 
     27 CA         26.6375   25.1873    2.2983 C.3       3 UNK         0.0319 
     28 CB         25.8534   26.0902    3.2705 C.3       3 UNK        -0.2001 
     29 N          26.0263   23.8653    2.2132 N.am      3 UNK        -0.4354 
     30 C          26.0686   22.9097    3.1488 C.2       2 UNK         0.4964 
     31 O          26.6120   23.0392    4.2458 O.2       2 UNK        -0.5047 
     32 CA         25.4109   21.5704    2.7789 C.3       2 UNK         0.0288 
     33 CB         23.8769   21.6821    2.8059 C.3       2 UNK        -0.2113 
     34 N          25.8512   21.0905    1.4653 N.am      2 UNK        -0.4145 
     35 C          27.0680   20.5804    1.2256 C.2       1 UNK         0.5006 
     36 O          27.9242   20.4184    2.1001 O.2       1 UNK        -0.5103 
     37 C          30.7118   30.2266    1.5011 C.2       5 UNK         0.5055 
     38 O          31.1719   31.3692    1.4935 O.2       5 UNK        -0.5220 
     39 N          29.8789   29.7568    2.4454 N.am      6 UNK        -0.4450 
     40 CA         29.3522   30.4775    3.6101 C.3       6 UNK         0.0367 
     41 CB         28.3887   29.5545    4.3736 C.3       6 UNK        -0.1929 
     42 C          28.6740   31.8270    3.3052 C.2       6 UNK         0.5070 
     43 O          28.6001   32.6695    4.1993 O.2       6 UNK        -0.5237 
     44 N          28.2167   32.0256    2.0600 N.am      7 UNK        -0.4739 
     45 CA         27.7133   33.3047    1.5539 C.3       7 UNK         0.0276 
     46 CB         27.0789   33.0830    0.1718 C.3       7 UNK        -0.1927 
     47 C          28.7924   34.4043    1.4822 C.2       7 UNK         0.5013 
     48 O          28.4473   35.5817    1.5909 O.2       7 UNK        -0.5193 
     49 N          30.0633   34.0126    1.3078 N.am      8 UNK        -0.4253 
     50 CA         31.2205   34.9061    1.3403 C.3       8 UNK         0.0242 
     51 CB         32.2613   34.4515    0.3020 C.3       8 UNK        -0.2000 
     52 C          31.8215   34.9439    2.7523 C.2       8 UNK         0.4948 
     53 O          31.9423   36.0256    3.3289 O.2       8 UNK        -0.5275 
     54 N          32.1687   33.7682    3.2888 N.am      9 UNK        -0.4246 
     55 CA         32.7190   33.5625    4.6279 C.3       9 UNK         0.0261 
     56 CB         34.1919   34.0094    4.6868 C.3       9 UNK        -0.1959 
     57 C          32.5957   32.0721    4.9487 C.2       9 UNK         0.5033 
     58 O          32.7062   31.2644    4.0258 O.2       9 UNK        -0.5390 
     59 N          32.3676   31.7344    6.2264 N.am      10 UNK        -0.4215 
     60 CA         32.0889   30.3870    6.7485 C.3       10 UNK         0.0240 
     61 CB         32.0600   30.4432    8.2864 C.3       10 UNK        -0.1982 
     62 C          33.0629   29.3014    6.2467 C.2       10 UNK         0.4970 
     63 O          34.1631   29.1714    6.7872 O.2       10 UNK        -0.4916 
     64 N          32.6360   28.5766    5.2033 N.am      11 UNK        -0.4279 
     65 CA         33.4139   27.5762    4.4548 C.3       11 UNK         0.1003 
     66 C          34.6865   28.1327    3.7420 C.2       11 UNK         0.5709 
     67 N          34.7542   29.4209    3.4314 N.am      11 UNK        -0.7358 
     68 O          35.6066   27.3847    3.4207 O.2       11 UNK        -0.4999 
     69 C69        33.6611   26.2741    5.2699 C.3       12 UNK        -0.0954 
     70 S70        32.1232   25.3126    5.4801 S.3       12 UNK        -0.2268 
     71 C71        32.4006   23.9060    4.3511 C.3       12 UNK         0.0203 
     72 H72        29.1245   16.2551    0.8854 H         1 UNK         0.0888 
     73 H73        28.7671   15.9696   -0.8205 H         1 UNK         0.0888 
     74 H74        29.9855   17.1605   -0.3607 H         1 UNK         0.0888 
     75 H75        29.2460   19.2741   -0.5071 H         1 UNK         0.3017 
     76 H76        26.4443   19.9235   -0.7130 H         1 UNK         0.0873 
     77 H77        27.9639   21.1686   -2.0976 H         1 UNK         0.0745 
     78 H78        27.2803   22.2811   -0.9590 H         1 UNK         0.0745 
     79 H79        28.8661   24.1635   -0.2981 H         1 UNK         0.0705 
     80 H80        28.5887   23.2097    1.1422 H         1 UNK         0.0705 
     81 H81        30.1972   23.1577    2.9265 H         1 UNK         0.1334 
     82 H82        33.8729   25.3299    2.5378 H         1 UNK         0.1417 
     83 H83        31.2555   24.9344   -0.8314 H         1 UNK         0.1562 
     84 H84        34.0474   25.4290   -0.8355 H         1 UNK         0.0748 
     85 H85        34.4672   26.4204    0.5392 H         1 UNK         0.0748 
     86 H86        33.1860   29.3049    0.7022 H         1 UNK         0.0940 
     87 H87        32.3599   27.9638    1.4532 H         1 UNK         0.0940 
     88 H88        31.1246   29.9068   -0.5586 H         1 UNK         0.0703 
     89 H89        30.2201   27.3466    0.0592 H         1 UNK         0.3081 
     90 H90        26.7748   27.8836   -0.8280 H         1 UNK         0.0719 
     91 H91        29.1946   26.1439   -1.5984 H         1 UNK         0.0809 
     92 H92        27.5143   25.8172   -2.0111 H         1 UNK         0.0809 
     93 H93        28.3248   27.2205   -2.6773 H         1 UNK         0.0809 
     94 H94        28.2683   26.9004    1.3837 H         1 UNK         0.2990 
     95 H95        27.6663   25.0765    2.6483 H         1 UNK         0.0690 
     96 H96        25.8731   25.6980    4.2873 H         1 UNK         0.0788 
     97 H97        24.8091   26.1891    2.9712 H         1 UNK         0.0788 
     98 H98        26.2790   27.0934    3.3071 H         1 UNK         0.0788 
     99 H99        25.5606   23.6883    1.3314 H         1 UNK         0.2993 
    100 H100       25.7082   20.8364    3.5318 H         1 UNK         0.0949 
    101 H101       23.4071   20.7146    2.6267 H         1 UNK         0.0767 
    102 H102       23.5298   22.0334    3.7788 H         1 UNK         0.0767 
    103 H103       23.5035   22.3801    2.0555 H         1 UNK         0.0767 
    104 H104       25.1958   21.1828    0.7023 H         1 UNK         0.3013 
    105 H105       29.5585   28.8083    2.3387 H         1 UNK         0.3121 
    106 H106       30.1945   30.6933    4.2629 H         1 UNK         0.0774 
    107 H107       28.0124   30.0432    5.2737 H         1 UNK         0.0815 
    108 H108       27.5238   29.2859    3.7661 H         1 UNK         0.0815 
    109 H109       28.8792   28.6343    4.6913 H         1 UNK         0.0815 
    110 H110       28.3099   31.2769    1.3842 H         1 UNK         0.2987 
    111 H111       26.9364   33.6543    2.2375 H         1 UNK         0.0949 
    112 H112       27.8070   32.7115   -0.5507 H         1 UNK         0.0806 
    113 H113       26.2609   32.3640    0.2209 H         1 UNK         0.0806 
    114 H114       26.6695   34.0132   -0.2247 H         1 UNK         0.0806 
    115 H115       30.2685   33.0168    1.2757 H         1 UNK         0.3010 
    116 H116       30.9134   35.9210    1.0779 H         1 UNK         0.0829 
    117 H117       31.8489   34.4797   -0.7066 H         1 UNK         0.0813 
    118 H118       33.1335   35.1065    0.3138 H         1 UNK         0.0813 
    119 H119       32.6138   33.4365    0.4883 H         1 UNK         0.0813 
    120 H120       32.0218   32.9070    2.7664 H         1 UNK         0.3038 
    121 H121       32.1264   34.1341    5.3452 H         1 UNK         0.0769 
    122 H122       34.8022   33.4713    3.9601 H         1 UNK         0.0811 
    123 H123       34.6186   33.8238    5.6733 H         1 UNK         0.0811 
    124 H124       34.2965   35.0757    4.4868 H         1 UNK         0.0811 
    125 H125       32.3329   32.4791    6.9077 H         1 UNK         0.3204 
    126 H126       31.0846   30.1155    6.4189 H         1 UNK         0.0748 
    127 H127       31.8617   29.4575    8.7098 H         1 UNK         0.0771 
    128 H128       33.0103   30.7882    8.6964 H         1 UNK         0.0771 
    129 H129       31.2768   31.1108    8.6463 H         1 UNK         0.0771 
    130 H130       31.7398   28.8061    4.8027 H         1 UNK         0.2980 
    131 H131       32.7673   27.3068    3.6220 H         1 UNK         0.0545 
    132 H132       33.9906   30.0548    3.6637 H         1 UNK         0.3459 
    133 H133       35.5720   29.7715    2.9610 H         1 UNK         0.3459 
    134 H134       34.4043   25.6330    4.7958 H         1 UNK         0.0616 
    135 H135       34.0675   26.5049    6.2552 H         1 UNK         0.0616 
    136 H136       33.4328   23.5613    4.4253 H         1 UNK         0.0634 
    137 H137       31.7868   23.0725    4.6960 H         1 UNK         0.0634 
@<TRIPOS>BOND
     1    1    2 1    
     2    1   72 1    
     3    1   73 1    
     4    1   74 1    
     5    2    3 2    
     6    2    4 am   BACKBONE|DICT|INTERRES
     7    4    5 1    
     8    4   75 1    
     9    5    6 1    
    10    5   35 1    
    11    5   76 1    
    12    6    7 1    
    13    6   77 1    
    14    6   78 1    
    15    7    8 1    
    16    8    9 1    
    17    8   79 1    
    18    8   80 1    
    19    9   10 ar   
    20    9   14 ar   
    21   10   11 ar   
    22   10   81 1    
    23   11   12 ar   
    24   11   71 1    
    25   12   13 ar   
    26   12   82 1    
    27   13   14 ar   
    28   13   15 1    
    29   14   83 1    
    30   15   16 1    
    31   15   84 1    
    32   15   85 1    
    33   16   17 1    
    34   17   18 1    
    35   17   86 1    
    36   17   87 1    
    37   18   19 1    
    38   18   37 1    
    39   18   88 1    
    40   19   20 am   BACKBONE|DICT|INTERRES
    41   19   89 1    
    42   20   21 2    
    43   20   22 1    
    44   22   23 1    
    45   22   24 1    
    46   22   90 1    
    47   23   91 1    
    48   23   92 1    
    49   23   93 1    
    50   24   25 am   BACKBONE|DICT|INTERRES
    51   24   94 1    
    52   25   26 2    
    53   25   27 1    
    54   27   28 1    
    55   27   29 1    
    56   27   95 1    
    57   28   96 1    
    58   28   97 1    
    59   28   98 1    
    60   29   30 am   BACKBONE|DICT|INTERRES
    61   29   99 1    
    62   30   31 2    
    63   30   32 1    
    64   32   33 1    
    65   32   34 1    
    66   32  100 1    
    67   33  101 1    
    68   33  102 1    
    69   33  103 1    
    70   34   35 am   BACKBONE|DICT|INTERRES
    71   34  104 1    
    72   35   36 2    
    73   37   38 2    
    74   37   39 am   BACKBONE|DICT|INTERRES
    75   39   40 1    
    76   39  105 1    
    77   40   41 1    
    78   40   42 1    
    79   40  106 1    
    80   41  107 1    
    81   41  108 1    
    82   41  109 1    
    83   42   43 2    
    84   42   44 am   BACKBONE|DICT|INTERRES
    85   44   45 1    
    86   44  110 1    
    87   45   46 1    
    88   45   47 1    
    89   45  111 1    
    90   46  112 1    
    91   46  113 1    
    92   46  114 1    
    93   47   48 2    
    94   47   49 am   BACKBONE|DICT|INTERRES
    95   49   50 1    
    96   49  115 1    
    97   50   51 1    
    98   50   52 1    
    99   50  116 1    
   100   51  117 1    
   101   51  118 1    
   102   51  119 1    
   103   52   53 2    
   104   52   54 am   BACKBONE|DICT|INTERRES
   105   54   55 1    
   106   54  120 1    
   107   55   56 1    
   108   55   57 1    
   109   55  121 1    
   110   56  122 1    
   111   56  123 1    
   112   56  124 1    
   113   57   58 2    
   114   57   59 am   BACKBONE|DICT|INTERRES
   115   59   60 1    
   116   59  125 1    
   117   60   61 1    
   118   60   62 1    
   119   60  126 1    
   120   61  127 1    
   121   61  128 1    
   122   61  129 1    
   123   62   63 2    
   124   62   64 am   BACKBONE|DICT|INTERRES
   125   64   65 1    
   126   64  130 1    
   127   65   66 1    
   128   65   69 1    
   129   65  131 1    
   130   66   67 am   BACKBONE|DICT|INTERRES
   131   66   68 2    
   132   67  132 1    
   133   67  133 1    
   134   69   70 1    
   135   69  134 1    
   136   69  135 1    
   137   70   71 1    
   138   71  136 1    
   139   71  137 1    
@<TRIPOS>SUBSTRUCTURE
     1 UNK         1 GROUP             0       ****    0 ROOT    
