@<TRIPOS>MOLECULE
3R136
137   139    1
SMALL
USER_CHARGES


@<TRIPOS>ATOM
      1 CA         31.5794   20.6620   -2.0323 C.3       0 UNK        -0.1979 
      2 C          30.4283   21.2323   -1.2167 C.2       0 UNK         0.4864 
      3 O          29.8856   20.5304   -0.3625 O.2       0 UNK        -0.5359 
      4 N          30.0609   22.4953   -1.4818 N.am      1 UNK        -0.4318 
      5 CA         28.9932   23.2623   -0.8204 C.3       1 UNK         0.0824 
      6 C6         29.2781   23.5780    0.6722 C.3       12 UNK        -0.0944 
      7 S7         30.8796   24.4097    0.9423 S.3       12 UNK        -0.2672 
      8 C8         31.3680   23.7404    2.5681 C.3       12 UNK         0.0333 
      9 C9         30.7192   24.5028    3.7176 C.ar      12 UNK        -0.0807 
     10 C10        31.4939   25.3172    4.5524 C.ar      12 UNK        -0.0894 
     11 C11        30.9034   26.0324    5.6035 C.ar      12 UNK        -0.0804 
     12 C12        29.5215   25.9308    5.7980 C.ar      12 UNK        -0.0824 
     13 C13        28.7360   25.1170    4.9769 C.ar      12 UNK        -0.0762 
     14 C14        29.3462   24.3879    3.9551 C.ar      12 UNK        -0.0782 
     15 C15        27.2303   25.0208    5.2023 C.3       12 UNK         0.0230 
     16 S16        26.2487   25.5147    3.7420 S.3       12 UNK        -0.2608 
     17 C17        26.8152   27.2248    3.4483 C.3       12 UNK        -0.0989 
     18 CA         27.1872   27.4492    1.9550 C.3       5 UNK         0.0716 
     19 N          26.0327   27.4247    1.0434 N.am      5 UNK        -0.4135 
     20 C          25.0250   28.3078    1.0063 C.2       4 UNK         0.5031 
     21 O          24.8746   29.2094    1.8318 O.2       4 UNK        -0.5229 
     22 CA         24.0168   28.2153   -0.1564 C.3       4 UNK         0.0329 
     23 CB         24.4254   29.1775   -1.2902 C.3       4 UNK        -0.2001 
     24 N          23.7296   26.8746   -0.6925 N.am      4 UNK        -0.4303 
     25 C          24.5452   26.0263   -1.3320 C.2       3 UNK         0.5044 
     26 O          25.7626   26.1936   -1.4595 O.2       3 UNK        -0.5152 
     27 CA         23.8754   24.7907   -1.9461 C.3       3 UNK         0.0319 
     28 CB         23.0566   25.1648   -3.1965 C.3       3 UNK        -0.2001 
     29 N          24.9113   23.8302   -2.3039 N.am      3 UNK        -0.4354 
     30 C          24.7543   22.5069   -2.4182 C.2       2 UNK         0.4964 
     31 O          23.6694   21.9344   -2.3054 O.2       2 UNK        -0.5047 
     32 CA         26.0185   21.6706   -2.6998 C.3       2 UNK         0.0288 
     33 CB         26.1031   21.3106   -4.1925 C.3       2 UNK        -0.2113 
     34 N          27.2741   22.3124   -2.2899 N.am      2 UNK        -0.4145 
     35 C          27.6084   22.6071   -1.0240 C.2       1 UNK         0.5006 
     36 O          26.8802   22.3716   -0.0570 O.2       1 UNK        -0.5103 
     37 C          28.0356   28.7191    1.7207 C.2       5 UNK         0.5055 
     38 O          28.4350   29.3923    2.6719 O.2       5 UNK        -0.5220 
     39 N          28.3111   29.0200    0.4408 N.am      6 UNK        -0.4450 
     40 CA         29.0798   30.1872   -0.0141 C.3       6 UNK         0.0367 
     41 CB         29.0674   30.2302   -1.5504 C.3       6 UNK        -0.1929 
     42 C          30.5259   30.2430    0.5164 C.2       6 UNK         0.5070 
     43 O          31.1069   31.3265    0.5829 O.2       6 UNK        -0.5237 
     44 N          31.0656   29.0858    0.9229 N.am      7 UNK        -0.4739 
     45 CA         32.3581   28.9401    1.5919 C.3       7 UNK         0.0276 
     46 CB         32.7284   27.4515    1.6511 C.3       7 UNK        -0.1927 
     47 C          32.4175   29.5555    3.0017 C.2       7 UNK         0.5013 
     48 O          33.5226   29.6942    3.5227 O.2       7 UNK        -0.5193 
     49 N          31.2746   29.9422    3.5954 N.am      8 UNK        -0.4253 
     50 CA         31.1760   30.5563    4.9282 C.3       8 UNK         0.0242 
     51 CB         29.7106   30.8945    5.2389 C.3       8 UNK        -0.2000 
     52 C          32.0734   31.7899    5.1472 C.2       8 UNK         0.4948 
     53 O          32.5418   32.0031    6.2665 O.2       8 UNK        -0.5275 
     54 N          32.3444   32.5422    4.0709 N.am      9 UNK        -0.4246 
     55 CA         33.3007   33.6518    4.0438 C.3       9 UNK         0.0261 
     56 CB         33.1636   34.4004    2.7082 C.3       9 UNK        -0.1959 
     57 C          34.7638   33.2193    4.2710 C.2       9 UNK         0.5033 
     58 O          35.5483   34.0233    4.7766 O.2       9 UNK        -0.5390 
     59 N          35.1072   31.9761    3.9042 N.am      10 UNK        -0.4215 
     60 CA         36.4084   31.3593    4.1633 C.3       10 UNK         0.0240 
     61 CB         36.7746   30.4089    3.0107 C.3       10 UNK        -0.1982 
     62 C          36.4156   30.6146    5.5078 C.2       10 UNK         0.4970 
     63 O          37.4520   30.6127    6.1735 O.2       10 UNK        -0.4916 
     64 N          35.2787   30.0109    5.8921 N.am      11 UNK        -0.4279 
     65 CA         35.0786   29.3764    7.2073 C.3       11 UNK         0.1003 
     66 C          35.2356   30.3709    8.3919 C.2       11 UNK         0.5709 
     67 N          34.6487   31.5597    8.3101 N.am      11 UNK        -0.7358 
     68 O          35.8890   30.0602    9.3851 O.2       11 UNK        -0.4999 
     69 C69        33.7167   28.6438    7.3349 C.3       12 UNK        -0.0954 
     70 S70        33.3573   27.4346    6.0196 S.3       12 UNK        -0.2268 
     71 C71        31.7041   26.8959    6.5804 C.3       12 UNK         0.0203 
     72 H72        31.2483   19.7835   -2.5854 H         1 UNK         0.0888 
     73 H73        31.9719   21.3850   -2.7473 H         1 UNK         0.0888 
     74 H74        32.3935   20.3630   -1.3724 H         1 UNK         0.0888 
     75 H75        30.5678   23.0036   -2.1932 H         1 UNK         0.3017 
     76 H76        28.9435   24.2191   -1.3430 H         1 UNK         0.0873 
     77 H77        28.4971   24.2283    1.0703 H         1 UNK         0.0745 
     78 H78        29.2449   22.6587    1.2592 H         1 UNK         0.0745 
     79 H79        32.4548   23.7982    2.6445 H         1 UNK         0.0705 
     80 H80        31.1193   22.6803    2.6337 H         1 UNK         0.0705 
     81 H81        32.5589   25.3833    4.3817 H         1 UNK         0.1334 
     82 H82        29.0556   26.4829    6.6032 H         1 UNK         0.1417 
     83 H83        28.7392   23.7451    3.3350 H         1 UNK         0.1562 
     84 H84        26.9244   25.6355    6.0503 H         1 UNK         0.0748 
     85 H85        26.9775   23.9924    5.4637 H         1 UNK         0.0748 
     86 H86        27.6735   27.4236    4.0911 H         1 UNK         0.0940 
     87 H87        26.0413   27.9197    3.7758 H         1 UNK         0.0940 
     88 H88        27.8323   26.6227    1.6522 H         1 UNK         0.0703 
     89 H89        26.0754   26.7578    0.2769 H         1 UNK         0.3081 
     90 H90        23.0661   28.5723    0.2434 H         1 UNK         0.0719 
     91 H91        23.6684   29.2115   -2.0737 H         1 UNK         0.0809 
     92 H92        25.3710   28.8887   -1.7503 H         1 UNK         0.0809 
     93 H93        24.5469   30.1947   -0.9148 H         1 UNK         0.0809 
     94 H94        22.7605   26.5978   -0.6111 H         1 UNK         0.2990 
     95 H95        23.2199   24.3483   -1.1927 H         1 UNK         0.0690 
     96 H96        22.5716   24.2903   -3.6307 H         1 UNK         0.0788 
     97 H97        23.6843   25.6147   -3.9668 H         1 UNK         0.0788 
     98 H98        22.2697   25.8808   -2.9567 H         1 UNK         0.0788 
     99 H99        25.8387   24.2310   -2.3679 H         1 UNK         0.2993 
    100 H100       25.9211   20.7445   -2.1291 H         1 UNK         0.0949 
    101 H101       26.2250   22.1977   -4.8154 H         1 UNK         0.0767 
    102 H102       26.9389   20.6397   -4.3930 H         1 UNK         0.0767 
    103 H103       25.1963   20.8022   -4.5236 H         1 UNK         0.0767 
    104 H104       27.9355   22.5220   -3.0238 H         1 UNK         0.3013 
    105 H105       27.9461   28.4153   -0.2812 H         1 UNK         0.3121 
    106 H106       28.5693   31.0781    0.3579 H         1 UNK         0.0774 
    107 H107       29.6059   31.1040   -1.9205 H         1 UNK         0.0815 
    108 H108       29.5419   29.3484   -1.9830 H         1 UNK         0.0815 
    109 H109       28.0506   30.2915   -1.9389 H         1 UNK         0.0815 
    110 H110       30.5126   28.2470    0.8249 H         1 UNK         0.2987 
    111 H111       33.1081   29.4562    0.9886 H         1 UNK         0.0949 
    112 H112       32.7781   27.0108    0.6554 H         1 UNK         0.0806 
    113 H113       33.7035   27.3060    2.1186 H         1 UNK         0.0806 
    114 H114       32.0019   26.8872    2.2350 H         1 UNK         0.0806 
    115 H115       30.3963   29.7774    3.1131 H         1 UNK         0.3010 
    116 H116       31.4989   29.8009    5.6413 H         1 UNK         0.0829 
    117 H117       29.0931   29.9961    5.2530 H         1 UNK         0.0813 
    118 H118       29.6142   31.3657    6.2181 H         1 UNK         0.0813 
    119 H119       29.2898   31.5789    4.5012 H         1 UNK         0.0813 
    120 H120       31.9153   32.2873    3.1917 H         1 UNK         0.3038 
    121 H121       33.0354   34.3384    4.8506 H         1 UNK         0.0769 
    122 H122       32.1559   34.7946    2.5753 H         1 UNK         0.0811 
    123 H123       33.3863   33.7540    1.8581 H         1 UNK         0.0811 
    124 H124       33.8496   35.2475    2.6630 H         1 UNK         0.0811 
    125 H125       34.3879   31.3475    3.5559 H         1 UNK         0.3204 
    126 H126       37.1747   32.1362    4.2085 H         1 UNK         0.0748 
    127 H127       37.7693   29.9865    3.1586 H         1 UNK         0.0771 
    128 H128       36.0779   29.5741    2.9299 H         1 UNK         0.0771 
    129 H129       36.7836   30.9316    2.0541 H         1 UNK         0.0771 
    130 H130       34.4944   29.9813    5.2506 H         1 UNK         0.2980 
    131 H131       35.8636   28.6252    7.3126 H         1 UNK         0.0545 
    132 H132       34.7453   32.2133    9.0703 H         1 UNK         0.3459 
    133 H133       34.0477   31.7825    7.5223 H         1 UNK         0.3459 
    134 H134       33.6741   28.1106    8.2867 H         1 UNK         0.0616 
    135 H135       32.9038   29.3700    7.3638 H         1 UNK         0.0616 
    136 H136       31.1186   27.7836    6.8229 H         1 UNK         0.0634 
    137 H137       31.8221   26.3413    7.5121 H         1 UNK         0.0634 
@<TRIPOS>BOND
     1    1    2 1    
     2    1   72 1    
     3    1   73 1    
     4    1   74 1    
     5    2    3 2    
     6    2    4 am   BACKBONE|DICT|INTERRES
     7    4    5 1    
     8    4   75 1    
     9    5    6 1    
    10    5   35 1    
    11    5   76 1    
    12    6    7 1    
    13    6   77 1    
    14    6   78 1    
    15    7    8 1    
    16    8    9 1    
    17    8   79 1    
    18    8   80 1    
    19    9   10 ar   
    20    9   14 ar   
    21   10   11 ar   
    22   10   81 1    
    23   11   12 ar   
    24   11   71 1    
    25   12   13 ar   
    26   12   82 1    
    27   13   14 ar   
    28   13   15 1    
    29   14   83 1    
    30   15   16 1    
    31   15   84 1    
    32   15   85 1    
    33   16   17 1    
    34   17   18 1    
    35   17   86 1    
    36   17   87 1    
    37   18   19 1    
    38   18   37 1    
    39   18   88 1    
    40   19   20 am   BACKBONE|DICT|INTERRES
    41   19   89 1    
    42   20   21 2    
    43   20   22 1    
    44   22   23 1    
    45   22   24 1    
    46   22   90 1    
    47   23   91 1    
    48   23   92 1    
    49   23   93 1    
    50   24   25 am   BACKBONE|DICT|INTERRES
    51   24   94 1    
    52   25   26 2    
    53   25   27 1    
    54   27   28 1    
    55   27   29 1    
    56   27   95 1    
    57   28   96 1    
    58   28   97 1    
    59   28   98 1    
    60   29   30 am   BACKBONE|DICT|INTERRES
    61   29   99 1    
    62   30   31 2    
    63   30   32 1    
    64   32   33 1    
    65   32   34 1    
    66   32  100 1    
    67   33  101 1    
    68   33  102 1    
    69   33  103 1    
    70   34   35 am   BACKBONE|DICT|INTERRES
    71   34  104 1    
    72   35   36 2    
    73   37   38 2    
    74   37   39 am   BACKBONE|DICT|INTERRES
    75   39   40 1    
    76   39  105 1    
    77   40   41 1    
    78   40   42 1    
    79   40  106 1    
    80   41  107 1    
    81   41  108 1    
    82   41  109 1    
    83   42   43 2    
    84   42   44 am   BACKBONE|DICT|INTERRES
    85   44   45 1    
    86   44  110 1    
    87   45   46 1    
    88   45   47 1    
    89   45  111 1    
    90   46  112 1    
    91   46  113 1    
    92   46  114 1    
    93   47   48 2    
    94   47   49 am   BACKBONE|DICT|INTERRES
    95   49   50 1    
    96   49  115 1    
    97   50   51 1    
    98   50   52 1    
    99   50  116 1    
   100   51  117 1    
   101   51  118 1    
   102   51  119 1    
   103   52   53 2    
   104   52   54 am   BACKBONE|DICT|INTERRES
   105   54   55 1    
   106   54  120 1    
   107   55   56 1    
   108   55   57 1    
   109   55  121 1    
   110   56  122 1    
   111   56  123 1    
   112   56  124 1    
   113   57   58 2    
   114   57   59 am   BACKBONE|DICT|INTERRES
   115   59   60 1    
   116   59  125 1    
   117   60   61 1    
   118   60   62 1    
   119   60  126 1    
   120   61  127 1    
   121   61  128 1    
   122   61  129 1    
   123   62   63 2    
   124   62   64 am   BACKBONE|DICT|INTERRES
   125   64   65 1    
   126   64  130 1    
   127   65   66 1    
   128   65   69 1    
   129   65  131 1    
   130   66   67 am   BACKBONE|DICT|INTERRES
   131   66   68 2    
   132   67  132 1    
   133   67  133 1    
   134   69   70 1    
   135   69  134 1    
   136   69  135 1    
   137   70   71 1    
   138   71  136 1    
   139   71  137 1    
@<TRIPOS>SUBSTRUCTURE
     1 UNK         1 GROUP             0       ****    0 ROOT    
