@<TRIPOS>MOLECULE
3R136
137   139    1
SMALL
USER_CHARGES


@<TRIPOS>ATOM
      1 CA         33.5324   25.8134    0.4369 C.3       0 UNK        -0.1979 
      2 C          32.2943   25.5073    1.2658 C.2       0 UNK         0.4864 
      3 O          32.3314   25.6590    2.4861 O.2       0 UNK        -0.5359 
      4 N          31.2121   25.0714    0.6105 N.am      1 UNK        -0.4318 
      5 CA         29.8973   24.8124    1.1990 C.3       1 UNK         0.0824 
      6 C6         29.8890   23.6588    2.2441 C.3       12 UNK        -0.0944 
      7 S7         28.2666   23.3968    3.0465 S.3       12 UNK        -0.2672 
      8 C8         28.5386   24.1171    4.6973 C.3       12 UNK         0.0333 
      9 C9         28.4085   25.6325    4.6781 C.ar      12 UNK        -0.0807 
     10 C10        29.5157   26.4346    4.3929 C.ar      12 UNK        -0.0894 
     11 C11        29.4029   27.8276    4.3702 C.ar      12 UNK        -0.0804 
     12 C12        28.1653   28.4198    4.6404 C.ar      12 UNK        -0.0824 
     13 C13        27.0462   27.6267    4.9191 C.ar      12 UNK        -0.0762 
     14 C14        27.1765   26.2349    4.9450 C.ar      12 UNK        -0.0782 
     15 C15        25.6846   28.2637    5.1561 C.3       12 UNK         0.0230 
     16 S16        24.5609   27.9841    3.7470 S.3       12 UNK        -0.2608 
     17 C17        25.3974   28.9211    2.4231 C.3       12 UNK        -0.0989 
     18 CA         26.3029   28.0235    1.5322 C.3       5 UNK         0.0716 
     19 N          25.5906   26.9328    0.8586 N.am      5 UNK        -0.4135 
     20 C          24.6634   27.0506   -0.1019 C.2       4 UNK         0.5031 
     21 O          24.2193   28.1296   -0.4974 O.2       4 UNK        -0.5229 
     22 CA         24.1495   25.7530   -0.7498 C.3       4 UNK         0.0329 
     23 CB         24.1987   25.8368   -2.2873 C.3       4 UNK        -0.2001 
     24 N          24.9044   24.5714   -0.3219 N.am      4 UNK        -0.4303 
     25 C          24.3675   23.3855    0.0006 C.2       3 UNK         0.5044 
     26 O          23.1535   23.1853    0.0703 O.2       3 UNK        -0.5152 
     27 CA         25.3458   22.2239    0.2936 C.3       3 UNK         0.0319 
     28 CB         24.7695   20.8475   -0.1010 C.3       3 UNK        -0.2001 
     29 N          26.6817   22.4191   -0.2867 N.am      3 UNK        -0.4354 
     30 C          26.9998   22.5737   -1.5835 C.2       2 UNK         0.4964 
     31 O          26.1995   22.4142   -2.5058 O.2       2 UNK        -0.5047 
     32 CA         28.4430   23.0218   -1.9094 C.3       2 UNK         0.0288 
     33 CB         28.4677   24.0672   -3.0456 C.3       2 UNK        -0.2113 
     34 N          29.2136   23.5121   -0.7535 N.am      2 UNK        -0.4145 
     35 C          28.9177   24.5510    0.0467 C.2       1 UNK         0.5006 
     36 O          27.9230   25.2677   -0.0896 O.2       1 UNK        -0.5103 
     37 C          27.1722   28.8333    0.5463 C.2       5 UNK         0.5055 
     38 O          27.1538   30.0660    0.5688 O.2       5 UNK        -0.5220 
     39 N          27.9211   28.1204   -0.3067 N.am      6 UNK        -0.4450 
     40 CA         28.9741   28.6901   -1.1471 C.3       6 UNK         0.0367 
     41 CB         29.3551   27.6793   -2.2405 C.3       6 UNK        -0.1929 
     42 C          30.1998   29.0548   -0.2921 C.2       6 UNK         0.5070 
     43 O          30.4703   28.3718    0.6970 O.2       6 UNK        -0.5237 
     44 N          30.9226   30.1030   -0.7115 N.am      7 UNK        -0.4739 
     45 CA         32.0443   30.7450   -0.0078 C.3       7 UNK         0.0276 
     46 CB         33.2001   29.7466    0.2400 C.3       7 UNK        -0.1927 
     47 C          31.5959   31.4696    1.2806 C.2       7 UNK         0.5013 
     48 O          30.3976   31.6371    1.5189 O.2       7 UNK        -0.5193 
     49 N          32.5690   31.9279    2.0732 N.am      8 UNK        -0.4253 
     50 CA         32.3794   32.6093    3.3496 C.3       8 UNK         0.0242 
     51 CB         31.9738   34.0782    3.1206 C.3       8 UNK        -0.2000 
     52 C          33.6919   32.5247    4.1328 C.2       8 UNK         0.4948 
     53 O          34.7534   32.3738    3.5189 O.2       8 UNK        -0.5275 
     54 N          33.5949   32.6418    5.4645 N.am      9 UNK        -0.4246 
     55 CA         34.6704   32.6047    6.4671 C.3       9 UNK         0.0261 
     56 CB         35.6583   33.7758    6.2879 C.3       9 UNK        -0.1959 
     57 C          35.3977   31.2512    6.5410 C.2       9 UNK         0.5033 
     58 O          35.3130   30.5707    7.5639 O.2       9 UNK        -0.5390 
     59 N          36.0602   30.8590    5.4479 N.am      10 UNK        -0.4215 
     60 CA         36.7484   29.5795    5.2671 C.3       10 UNK         0.0240 
     61 CB         37.9121   29.7789    4.2777 C.3       10 UNK        -0.1982 
     62 C          35.7676   28.4771    4.8200 C.2       10 UNK         0.4970 
     63 O          36.0288   27.7772    3.8399 O.2       10 UNK        -0.4916 
     64 N          34.6426   28.3640    5.5333 N.am      11 UNK        -0.4279 
     65 CA         33.5880   27.3720    5.3038 C.3       11 UNK         0.1003 
     66 C          34.0516   25.9348    5.6597 C.2       11 UNK         0.5709 
     67 N          33.6850   24.9494    4.8538 N.am      11 UNK        -0.7358 
     68 O          34.7026   25.7050    6.6780 O.2       11 UNK        -0.4999 
     69 C69        32.2973   27.7426    6.0774 C.3       12 UNK        -0.0954 
     70 S70        31.5252   29.2794    5.4659 S.3       12 UNK        -0.2268 
     71 C71        30.6065   28.6875    4.0066 C.3       12 UNK         0.0203 
     72 H72        33.3047   25.8792   -0.6269 H         1 UNK         0.0888 
     73 H73        33.9652   26.7635    0.7485 H         1 UNK         0.0888 
     74 H74        34.2816   25.0358    0.5824 H         1 UNK         0.0888 
     75 H75        31.2501   24.9928   -0.3964 H         1 UNK         0.3017 
     76 H76        29.5793   25.7349    1.6890 H         1 UNK         0.0873 
     77 H77        30.1939   22.7183    1.7826 H         1 UNK         0.0745 
     78 H78        30.6300   23.8419    3.0212 H         1 UNK         0.0745 
     79 H79        29.5151   23.8208    5.0834 H         1 UNK         0.0705 
     80 H80        27.8048   23.6936    5.3848 H         1 UNK         0.0705 
     81 H81        30.4678   25.9724    4.1766 H         1 UNK         0.1334 
     82 H82        28.0713   29.4968    4.6097 H         1 UNK         0.1417 
     83 H83        26.3104   25.6206    5.1517 H         1 UNK         0.1562 
     84 H84        25.7791   29.3348    5.3412 H         1 UNK         0.0748 
     85 H85        25.2382   27.8366    6.0552 H         1 UNK         0.0748 
     86 H86        25.9801   29.7218    2.8822 H         1 UNK         0.0940 
     87 H87        24.6376   29.4189    1.8188 H         1 UNK         0.0940 
     88 H88        27.0226   27.5281    2.1833 H         1 UNK         0.0703 
     89 H89        25.8928   26.0039    1.1123 H         1 UNK         0.3081 
     90 H90        23.1060   25.6594   -0.4425 H         1 UNK         0.0719 
     91 H91        23.6084   26.6758   -2.6581 H         1 UNK         0.0809 
     92 H92        25.2197   25.9681   -2.6481 H         1 UNK         0.0809 
     93 H93        23.7968   24.9330   -2.7458 H         1 UNK         0.0809 
     94 H94        25.9153   24.6454   -0.3674 H         1 UNK         0.2990 
     95 H95        25.4877   22.2223    1.3754 H         1 UNK         0.0690 
     96 H96        24.5266   20.7987   -1.1628 H         1 UNK         0.0788 
     97 H97        23.8533   20.6334    0.4507 H         1 UNK         0.0788 
     98 H98        25.4728   20.0447    0.1200 H         1 UNK         0.0788 
     99 H99        27.4200   22.5647    0.3877 H         1 UNK         0.2993 
    100 H100       28.9592   22.1292   -2.2664 H         1 UNK         0.0949 
    101 H101       27.8819   24.9515   -2.7928 H         1 UNK         0.0767 
    102 H102       29.4845   24.3894   -3.2697 H         1 UNK         0.0767 
    103 H103       28.0509   23.6570   -3.9663 H         1 UNK         0.0767 
    104 H104       30.0353   22.9666   -0.5299 H         1 UNK         0.3013 
    105 H105       27.8914   27.1057   -0.2437 H         1 UNK         0.3121 
    106 H106       28.5877   29.5938   -1.6236 H         1 UNK         0.0774 
    107 H107       30.1017   28.0986   -2.9159 H         1 UNK         0.0815 
    108 H108       29.7764   26.7670   -1.8186 H         1 UNK         0.0815 
    109 H109       28.4905   27.4038   -2.8445 H         1 UNK         0.0815 
    110 H110       30.5996   30.5953   -1.5329 H         1 UNK         0.2987 
    111 H111       32.4130   31.5204   -0.6812 H         1 UNK         0.0949 
    112 H112       33.4108   29.1538   -0.6502 H         1 UNK         0.0806 
    113 H113       34.1237   30.2630    0.5028 H         1 UNK         0.0806 
    114 H114       32.9726   29.0570    1.0540 H         1 UNK         0.0806 
    115 H115       33.5409   31.7570    1.8439 H         1 UNK         0.3010 
    116 H116       31.6001   32.0928    3.9146 H         1 UNK         0.0829 
    117 H117       31.0261   34.1532    2.5872 H         1 UNK         0.0813 
    118 H118       31.8507   34.6051    4.0676 H         1 UNK         0.0813 
    119 H119       32.7261   34.6165    2.5426 H         1 UNK         0.0813 
    120 H120       32.6663   32.7379    5.8530 H         1 UNK         0.3038 
    121 H121       34.1794   32.7450    7.4316 H         1 UNK         0.0769 
    122 H122       35.1443   34.7356    6.3397 H         1 UNK         0.0811 
    123 H123       36.4130   33.7708    7.0755 H         1 UNK         0.0811 
    124 H124       36.1862   33.7332    5.3350 H         1 UNK         0.0811 
    125 H125       35.9408   31.4375    4.6182 H         1 UNK         0.3204 
    126 H126       37.1730   29.2636    6.2224 H         1 UNK         0.0748 
    127 H127       38.4832   28.8580    4.1523 H         1 UNK         0.0771 
    128 H128       37.5554   30.0811    3.2921 H         1 UNK         0.0771 
    129 H129       38.6059   30.5420    4.6313 H         1 UNK         0.0771 
    130 H130       34.5292   28.9618    6.3420 H         1 UNK         0.2980 
    131 H131       33.3618   27.3906    4.2365 H         1 UNK         0.0545 
    132 H132       33.1627   25.1530    4.0018 H         1 UNK         0.3459 
    133 H133       33.9587   24.0040    5.0665 H         1 UNK         0.3459 
    134 H134       31.5668   26.9360    6.0349 H         1 UNK         0.0616 
    135 H135       32.5194   27.8761    7.1376 H         1 UNK         0.0616 
    136 H136       31.2800   28.1383    3.3474 H         1 UNK         0.0634 
    137 H137       30.2716   29.5523    3.4323 H         1 UNK         0.0634 
@<TRIPOS>BOND
     1    1    2 1    
     2    1   72 1    
     3    1   73 1    
     4    1   74 1    
     5    2    3 2    
     6    2    4 am   BACKBONE|DICT|INTERRES
     7    4    5 1    
     8    4   75 1    
     9    5    6 1    
    10    5   35 1    
    11    5   76 1    
    12    6    7 1    
    13    6   77 1    
    14    6   78 1    
    15    7    8 1    
    16    8    9 1    
    17    8   79 1    
    18    8   80 1    
    19    9   10 ar   
    20    9   14 ar   
    21   10   11 ar   
    22   10   81 1    
    23   11   12 ar   
    24   11   71 1    
    25   12   13 ar   
    26   12   82 1    
    27   13   14 ar   
    28   13   15 1    
    29   14   83 1    
    30   15   16 1    
    31   15   84 1    
    32   15   85 1    
    33   16   17 1    
    34   17   18 1    
    35   17   86 1    
    36   17   87 1    
    37   18   19 1    
    38   18   37 1    
    39   18   88 1    
    40   19   20 am   BACKBONE|DICT|INTERRES
    41   19   89 1    
    42   20   21 2    
    43   20   22 1    
    44   22   23 1    
    45   22   24 1    
    46   22   90 1    
    47   23   91 1    
    48   23   92 1    
    49   23   93 1    
    50   24   25 am   BACKBONE|DICT|INTERRES
    51   24   94 1    
    52   25   26 2    
    53   25   27 1    
    54   27   28 1    
    55   27   29 1    
    56   27   95 1    
    57   28   96 1    
    58   28   97 1    
    59   28   98 1    
    60   29   30 am   BACKBONE|DICT|INTERRES
    61   29   99 1    
    62   30   31 2    
    63   30   32 1    
    64   32   33 1    
    65   32   34 1    
    66   32  100 1    
    67   33  101 1    
    68   33  102 1    
    69   33  103 1    
    70   34   35 am   BACKBONE|DICT|INTERRES
    71   34  104 1    
    72   35   36 2    
    73   37   38 2    
    74   37   39 am   BACKBONE|DICT|INTERRES
    75   39   40 1    
    76   39  105 1    
    77   40   41 1    
    78   40   42 1    
    79   40  106 1    
    80   41  107 1    
    81   41  108 1    
    82   41  109 1    
    83   42   43 2    
    84   42   44 am   BACKBONE|DICT|INTERRES
    85   44   45 1    
    86   44  110 1    
    87   45   46 1    
    88   45   47 1    
    89   45  111 1    
    90   46  112 1    
    91   46  113 1    
    92   46  114 1    
    93   47   48 2    
    94   47   49 am   BACKBONE|DICT|INTERRES
    95   49   50 1    
    96   49  115 1    
    97   50   51 1    
    98   50   52 1    
    99   50  116 1    
   100   51  117 1    
   101   51  118 1    
   102   51  119 1    
   103   52   53 2    
   104   52   54 am   BACKBONE|DICT|INTERRES
   105   54   55 1    
   106   54  120 1    
   107   55   56 1    
   108   55   57 1    
   109   55  121 1    
   110   56  122 1    
   111   56  123 1    
   112   56  124 1    
   113   57   58 2    
   114   57   59 am   BACKBONE|DICT|INTERRES
   115   59   60 1    
   116   59  125 1    
   117   60   61 1    
   118   60   62 1    
   119   60  126 1    
   120   61  127 1    
   121   61  128 1    
   122   61  129 1    
   123   62   63 2    
   124   62   64 am   BACKBONE|DICT|INTERRES
   125   64   65 1    
   126   64  130 1    
   127   65   66 1    
   128   65   69 1    
   129   65  131 1    
   130   66   67 am   BACKBONE|DICT|INTERRES
   131   66   68 2    
   132   67  132 1    
   133   67  133 1    
   134   69   70 1    
   135   69  134 1    
   136   69  135 1    
   137   70   71 1    
   138   71  136 1    
   139   71  137 1    
@<TRIPOS>SUBSTRUCTURE
     1 UNK         1 GROUP             0       ****    0 ROOT    
