@<TRIPOS>MOLECULE
3R136
137   139    1
SMALL
USER_CHARGES


@<TRIPOS>ATOM
      1 CA         28.8822   19.3237    1.2487 C.3       0 UNK        -0.1979 
      2 C          28.1686   19.8749    0.0229 C.2       0 UNK         0.4864 
      3 O          27.3755   19.1640   -0.5969 O.2       0 UNK        -0.5359 
      4 N          28.4505   21.1336   -0.3337 N.am      1 UNK        -0.4318 
      5 CA         27.7979   21.8679   -1.4205 C.3       1 UNK         0.0824 
      6 C6         28.6650   23.0601   -1.9076 C.3       12 UNK        -0.0944 
      7 S7         29.1861   24.2060   -0.5806 S.3       12 UNK        -0.2672 
      8 C8         30.9530   23.7933   -0.4480 C.3       12 UNK         0.0333 
      9 C9         31.5930   24.4679    0.7552 C.ar      12 UNK        -0.0807 
     10 C10        32.1379   25.7499    0.6374 C.ar      12 UNK        -0.0894 
     11 C11        32.7425   26.3722    1.7348 C.ar      12 UNK        -0.0804 
     12 C12        32.8213   25.6844    2.9512 C.ar      12 UNK        -0.0824 
     13 C13        32.2433   24.4198    3.0925 C.ar      12 UNK        -0.0762 
     14 C14        31.6419   23.8102    1.9876 C.ar      12 UNK        -0.0782 
     15 C15        32.2256   23.7325    4.4496 C.3       12 UNK         0.0230 
     16 S16        30.5637   23.7865    5.2004 S.3       12 UNK        -0.2608 
     17 C17        30.3554   25.5667    5.5625 C.3       12 UNK        -0.0989 
     18 CA         29.6652   26.3532    4.4163 C.3       5 UNK         0.0716 
     19 N          28.3882   25.7538    4.0054 N.am      5 UNK        -0.4135 
     20 C          27.8258   25.8982    2.7981 C.2       4 UNK         0.5031 
     21 O          28.3155   26.6099    1.9158 O.2       4 UNK        -0.5229 
     22 CA         26.5158   25.1239    2.5497 C.3       4 UNK         0.0329 
     23 CB         25.4561   25.3890    3.6419 C.3       4 UNK        -0.2001 
     24 N          25.9673   25.3643    1.2092 N.am      4 UNK        -0.4303 
     25 C          25.4867   26.5143    0.7056 C.2       3 UNK         0.5044 
     26 O          25.3054   27.5387    1.3660 O.2       3 UNK        -0.5152 
     27 CA         25.1647   26.5469   -0.8023 C.3       3 UNK         0.0319 
     28 CB         26.2582   27.3203   -1.5587 C.3       3 UNK        -0.2001 
     29 N          25.0306   25.2191   -1.4051 N.am      3 UNK        -0.4354 
     30 C          23.9959   24.3881   -1.2169 C.2       2 UNK         0.4964 
     31 O          22.9839   24.6871   -0.5825 O.2       2 UNK        -0.5047 
     32 CA         24.1183   22.9750   -1.8203 C.3       2 UNK         0.0288 
     33 CB         23.3797   22.8999   -3.1667 C.3       2 UNK        -0.2113 
     34 N          25.5024   22.5153   -2.0022 N.am      2 UNK        -0.4145 
     35 C          26.3816   22.3203   -1.0077 C.2       1 UNK         0.5006 
     36 O          26.1213   22.5301    0.1806 O.2       1 UNK        -0.5103 
     37 C          29.5439   27.8681    4.7063 C.2       5 UNK         0.5055 
     38 O          29.9273   28.3366    5.7794 O.2       5 UNK        -0.5220 
     39 N          29.0020   28.6022    3.7319 N.am      6 UNK        -0.4450 
     40 CA         28.8481   30.0535    3.7038 C.3       6 UNK         0.0367 
     41 CB         27.5186   30.4474    4.3747 C.3       6 UNK        -0.1929 
     42 C          28.9597   30.5850    2.2626 C.2       6 UNK         0.5070 
     43 O          28.5411   31.7126    1.9985 O.2       6 UNK        -0.5237 
     44 N          29.5163   29.7755    1.3463 N.am      7 UNK        -0.4739 
     45 CA         29.7432   30.1316   -0.0592 C.3       7 UNK         0.0276 
     46 CB         29.9918   28.8464   -0.8646 C.3       7 UNK        -0.1927 
     47 C          30.8991   31.1335   -0.2512 C.2       7 UNK         0.5013 
     48 O          30.9729   31.7802   -1.2968 O.2       7 UNK        -0.5193 
     49 N          31.7611   31.2527    0.7628 N.am      8 UNK        -0.4253 
     50 CA         32.7950   32.2672    0.9189 C.3       8 UNK         0.0242 
     51 CB         34.1697   31.6518    0.6056 C.3       8 UNK        -0.2000 
     52 C          32.7170   32.7904    2.3611 C.2       8 UNK         0.4948 
     53 O          32.0307   32.1909    3.1955 O.2       8 UNK        -0.5275 
     54 N          33.4034   33.9101    2.6222 N.am      9 UNK        -0.4246 
     55 CA         33.3995   34.6424    3.8920 C.3       9 UNK         0.0261 
     56 CB         34.2489   35.9172    3.7384 C.3       9 UNK        -0.1959 
     57 C          33.8716   33.7919    5.0872 C.2       9 UNK         0.5033 
     58 O          35.0784   33.6552    5.2994 O.2       9 UNK        -0.5390 
     59 N          32.8993   33.2458    5.8326 N.am      10 UNK        -0.4215 
     60 CA         33.0430   32.4332    7.0465 C.3       10 UNK         0.0240 
     61 CB         33.5512   33.3030    8.2172 C.3       10 UNK        -0.1982 
     62 C          33.8770   31.1509    6.8461 C.2       10 UNK         0.4970 
     63 O          34.6480   30.7819    7.7347 O.2       10 UNK        -0.4916 
     64 N          33.7113   30.4899    5.6915 N.am      11 UNK        -0.4279 
     65 CA         34.4138   29.2400    5.3537 C.3       11 UNK         0.1003 
     66 C          33.9586   27.9721    6.1359 C.2       11 UNK         0.5709 
     67 N          32.8674   28.0057    6.8893 N.am      11 UNK        -0.7358 
     68 O          34.6241   26.9413    6.0729 O.2       11 UNK        -0.4999 
     69 C69        34.4885   29.0075    3.8240 C.3       12 UNK        -0.0954 
     70 S70        32.8684   28.8699    2.9929 S.3       12 UNK        -0.2268 
     71 C71        33.2999   27.7845    1.5898 C.3       12 UNK         0.0203 
     72 H72        29.5593   20.0551    1.6900 H         1 UNK         0.0888 
     73 H73        28.1550   19.0348    2.0071 H         1 UNK         0.0888 
     74 H74        29.4638   18.4423    0.9800 H         1 UNK         0.0888 
     75 H75        29.0648   21.6902    0.2418 H         1 UNK         0.3017 
     76 H76        27.6834   21.1798   -2.2614 H         1 UNK         0.0873 
     77 H77        29.5525   22.6735   -2.4113 H         1 UNK         0.0745 
     78 H78        28.1383   23.6371   -2.6699 H         1 UNK         0.0745 
     79 H79        31.4627   24.0972   -1.3636 H         1 UNK         0.0705 
     80 H80        31.0738   22.7115   -0.3740 H         1 UNK         0.0705 
     81 H81        32.0849   26.2624   -0.3130 H         1 UNK         0.1334 
     82 H82        33.2884   26.1541    3.8050 H         1 UNK         0.1417 
     83 H83        31.1959   22.8309    2.0952 H         1 UNK         0.1562 
     84 H84        32.9494   24.1862    5.1291 H         1 UNK         0.0748 
     85 H85        32.5276   22.6909    4.3313 H         1 UNK         0.0748 
     86 H86        31.3364   25.9926    5.7755 H         1 UNK         0.0940 
     87 H87        29.7798   25.6591    6.4853 H         1 UNK         0.0940 
     88 H88        30.3233   26.2951    3.5510 H         1 UNK         0.0703 
     89 H89        27.9403   25.1617    4.6887 H         1 UNK         0.3081 
     90 H90        26.7720   24.0636    2.5755 H         1 UNK         0.0719 
     91 H91        25.7720   24.9954    4.6082 H         1 UNK         0.0809 
     92 H92        24.5092   24.9071    3.3979 H         1 UNK         0.0809 
     93 H93        25.2637   26.4543    3.7735 H         1 UNK         0.0809 
     94 H94        26.0666   24.5786    0.5766 H         1 UNK         0.2990 
     95 H95        24.2189   27.0789   -0.9246 H         1 UNK         0.0690 
     96 H96        26.0096   27.4332   -2.6140 H         1 UNK         0.0788 
     97 H97        27.2237   26.8170   -1.4904 H         1 UNK         0.0788 
     98 H98        26.3853   28.3228   -1.1470 H         1 UNK         0.0788 
     99 H99        25.8120   24.8918   -1.9534 H         1 UNK         0.2993 
    100 H100       23.6325   22.2879   -1.1238 H         1 UNK         0.0949 
    101 H101       22.3388   23.2092   -3.0589 H         1 UNK         0.0767 
    102 H102       23.8364   23.5488   -3.9152 H         1 UNK         0.0767 
    103 H103       23.3731   21.8832   -3.5605 H         1 UNK         0.0767 
    104 H104       25.7903   22.3263   -2.9520 H         1 UNK         0.3013 
    105 H105       28.6730   28.0966    2.9093 H         1 UNK         0.3121 
    106 H106       29.6712   30.5070    4.2608 H         1 UNK         0.0774 
    107 H107       27.3971   31.5309    4.4029 H         1 UNK         0.0815 
    108 H108       26.6636   30.0341    3.8383 H         1 UNK         0.0815 
    109 H109       27.4731   30.0923    5.4043 H         1 UNK         0.0815 
    110 H110       29.8482   28.8666    1.6360 H         1 UNK         0.2987 
    111 H111       28.8356   30.6042   -0.4415 H         1 UNK         0.0949 
    112 H112       29.1750   28.1350   -0.7414 H         1 UNK         0.0806 
    113 H113       30.0768   29.0638   -1.9301 H         1 UNK         0.0806 
    114 H114       30.9119   28.3509   -0.5590 H         1 UNK         0.0806 
    115 H115       31.5715   30.7341    1.6119 H         1 UNK         0.3010 
    116 H116       32.6034   33.1035    0.2431 H         1 UNK         0.0829 
    117 H117       34.2045   31.2674   -0.4139 H         1 UNK         0.0813 
    118 H118       34.9659   32.3909    0.6992 H         1 UNK         0.0813 
    119 H119       34.4077   30.8285    1.2778 H         1 UNK         0.0813 
    120 H120       33.9600   34.3128    1.8822 H         1 UNK         0.3038 
    121 H121       32.3714   34.9574    4.0836 H         1 UNK         0.0769 
    122 H122       35.2819   35.6866    3.4743 H         1 UNK         0.0811 
    123 H123       34.2708   36.4853    4.6694 H         1 UNK         0.0811 
    124 H124       33.8444   36.5753    2.9691 H         1 UNK         0.0811 
    125 H125       31.9504   33.3607    5.5014 H         1 UNK         0.3204 
    126 H126       32.0385   32.0943    7.3041 H         1 UNK         0.0748 
    127 H127       33.5399   32.7462    9.1551 H         1 UNK         0.0771 
    128 H128       34.5741   33.6434    8.0526 H         1 UNK         0.0771 
    129 H129       32.9240   34.1832    8.3591 H         1 UNK         0.0771 
    130 H130       33.0662   30.8451    4.9978 H         1 UNK         0.2980 
    131 H131       35.4483   29.3860    5.6711 H         1 UNK         0.0545 
    132 H132       32.2728   28.8189    6.8968 H         1 UNK         0.3459 
    133 H133       32.6032   27.1861    7.4101 H         1 UNK         0.3459 
    134 H134       35.0833   28.1165    3.6155 H         1 UNK         0.0616 
    135 H135       35.0293   29.8339    3.3616 H         1 UNK         0.0616 
    136 H136       34.3810   27.7314    1.4586 H         1 UNK         0.0634 
    137 H137       32.9142   28.2534    0.6843 H         1 UNK         0.0634 
@<TRIPOS>BOND
     1    1    2 1    
     2    1   72 1    
     3    1   73 1    
     4    1   74 1    
     5    2    3 2    
     6    2    4 am   BACKBONE|DICT|INTERRES
     7    4    5 1    
     8    4   75 1    
     9    5    6 1    
    10    5   35 1    
    11    5   76 1    
    12    6    7 1    
    13    6   77 1    
    14    6   78 1    
    15    7    8 1    
    16    8    9 1    
    17    8   79 1    
    18    8   80 1    
    19    9   10 ar   
    20    9   14 ar   
    21   10   11 ar   
    22   10   81 1    
    23   11   12 ar   
    24   11   71 1    
    25   12   13 ar   
    26   12   82 1    
    27   13   14 ar   
    28   13   15 1    
    29   14   83 1    
    30   15   16 1    
    31   15   84 1    
    32   15   85 1    
    33   16   17 1    
    34   17   18 1    
    35   17   86 1    
    36   17   87 1    
    37   18   19 1    
    38   18   37 1    
    39   18   88 1    
    40   19   20 am   BACKBONE|DICT|INTERRES
    41   19   89 1    
    42   20   21 2    
    43   20   22 1    
    44   22   23 1    
    45   22   24 1    
    46   22   90 1    
    47   23   91 1    
    48   23   92 1    
    49   23   93 1    
    50   24   25 am   BACKBONE|DICT|INTERRES
    51   24   94 1    
    52   25   26 2    
    53   25   27 1    
    54   27   28 1    
    55   27   29 1    
    56   27   95 1    
    57   28   96 1    
    58   28   97 1    
    59   28   98 1    
    60   29   30 am   BACKBONE|DICT|INTERRES
    61   29   99 1    
    62   30   31 2    
    63   30   32 1    
    64   32   33 1    
    65   32   34 1    
    66   32  100 1    
    67   33  101 1    
    68   33  102 1    
    69   33  103 1    
    70   34   35 am   BACKBONE|DICT|INTERRES
    71   34  104 1    
    72   35   36 2    
    73   37   38 2    
    74   37   39 am   BACKBONE|DICT|INTERRES
    75   39   40 1    
    76   39  105 1    
    77   40   41 1    
    78   40   42 1    
    79   40  106 1    
    80   41  107 1    
    81   41  108 1    
    82   41  109 1    
    83   42   43 2    
    84   42   44 am   BACKBONE|DICT|INTERRES
    85   44   45 1    
    86   44  110 1    
    87   45   46 1    
    88   45   47 1    
    89   45  111 1    
    90   46  112 1    
    91   46  113 1    
    92   46  114 1    
    93   47   48 2    
    94   47   49 am   BACKBONE|DICT|INTERRES
    95   49   50 1    
    96   49  115 1    
    97   50   51 1    
    98   50   52 1    
    99   50  116 1    
   100   51  117 1    
   101   51  118 1    
   102   51  119 1    
   103   52   53 2    
   104   52   54 am   BACKBONE|DICT|INTERRES
   105   54   55 1    
   106   54  120 1    
   107   55   56 1    
   108   55   57 1    
   109   55  121 1    
   110   56  122 1    
   111   56  123 1    
   112   56  124 1    
   113   57   58 2    
   114   57   59 am   BACKBONE|DICT|INTERRES
   115   59   60 1    
   116   59  125 1    
   117   60   61 1    
   118   60   62 1    
   119   60  126 1    
   120   61  127 1    
   121   61  128 1    
   122   61  129 1    
   123   62   63 2    
   124   62   64 am   BACKBONE|DICT|INTERRES
   125   64   65 1    
   126   64  130 1    
   127   65   66 1    
   128   65   69 1    
   129   65  131 1    
   130   66   67 am   BACKBONE|DICT|INTERRES
   131   66   68 2    
   132   67  132 1    
   133   67  133 1    
   134   69   70 1    
   135   69  134 1    
   136   69  135 1    
   137   70   71 1    
   138   71  136 1    
   139   71  137 1    
@<TRIPOS>SUBSTRUCTURE
     1 UNK         1 GROUP             0       ****    0 ROOT    
