@<TRIPOS>MOLECULE
3R136
137   139    1
SMALL
USER_CHARGES


@<TRIPOS>ATOM
      1 CA         30.5716   20.6855   -0.6920 C.3       0 UNK        -0.1979 
      2 C          30.5208   21.8253   -1.6991 C.2       0 UNK         0.4864 
      3 O          30.4216   21.5771   -2.9020 O.2       0 UNK        -0.5359 
      4 N          30.5955   23.0711   -1.2160 N.am      1 UNK        -0.4318 
      5 CA         30.4671   24.2933   -2.0135 C.3       1 UNK         0.0824 
      6 C6         31.0863   25.5204   -1.2899 C.3       12 UNK        -0.0944 
      7 S7         30.4659   25.7881    0.4102 S.3       12 UNK        -0.2672 
      8 C8         31.9363   25.3182    1.3737 C.3       12 UNK         0.0333 
      9 C9         31.6173   25.2190    2.8555 C.ar      12 UNK        -0.0807 
     10 C10        32.0198   26.2238    3.7402 C.ar      12 UNK        -0.0894 
     11 C11        31.7349   26.1219    5.1055 C.ar      12 UNK        -0.0804 
     12 C12        31.0214   25.0159    5.5801 C.ar      12 UNK        -0.0824 
     13 C13        30.6150   24.0041    4.7035 C.ar      12 UNK        -0.0762 
     14 C14        30.9294   24.1057    3.3452 C.ar      12 UNK        -0.0782 
     15 C15        29.8342   22.8012    5.2170 C.3       12 UNK         0.0230 
     16 S16        28.1807   22.6794    4.4574 S.3       12 UNK        -0.2608 
     17 C17        27.3725   24.1920    5.0848 C.3       12 UNK        -0.0989 
     18 CA         27.4865   25.3974    4.1068 C.3       5 UNK         0.0716 
     19 N          27.0331   25.1219    2.7387 N.am      5 UNK        -0.4135 
     20 C          25.8086   24.7362    2.3596 C.2       4 UNK         0.5031 
     21 O          24.8661   24.5656    3.1353 O.2       4 UNK        -0.5229 
     22 CA         25.6173   24.5335    0.8428 C.3       4 UNK         0.0329 
     23 CB         24.1398   24.3329    0.4444 C.3       4 UNK        -0.2001 
     24 N          26.2245   25.6013    0.0350 N.am      4 UNK        -0.4303 
     25 C          25.9613   26.9178    0.1117 C.2       3 UNK         0.5044 
     26 O          25.1979   27.4085    0.9419 O.2       3 UNK        -0.5152 
     27 CA         26.6698   27.8641   -0.8784 C.3       3 UNK         0.0319 
     28 CB         27.7347   28.7020   -0.1533 C.3       3 UNK        -0.2001 
     29 N          27.3001   27.1761   -2.0053 N.am      3 UNK        -0.4354 
     30 C          26.6473   26.5787   -3.0130 C.2       2 UNK         0.4964 
     31 O          25.4274   26.6382   -3.1678 O.2       2 UNK        -0.5047 
     32 CA         27.4920   25.7489   -4.0010 C.3       2 UNK         0.0288 
     33 CB         27.6953   26.5221   -5.3146 C.3       2 UNK        -0.2113 
     34 N          28.8025   25.3313   -3.4822 N.am      2 UNK        -0.4145 
     35 C          28.9981   24.5480   -2.4104 C.2       1 UNK         0.5006 
     36 O          28.0789   24.0947   -1.7211 O.2       1 UNK        -0.5103 
     37 C          26.9209   26.7052    4.7050 C.2       5 UNK         0.5055 
     38 O          27.0472   26.9151    5.9137 O.2       5 UNK        -0.5220 
     39 N          26.3736   27.5996    3.8666 N.am      6 UNK        -0.4450 
     40 CA         26.2364   29.0216    4.1942 C.3       6 UNK         0.0367 
     41 CB         25.2184   29.6773    3.2471 C.3       6 UNK        -0.1929 
     42 C          27.6099   29.7126    4.0929 C.2       6 UNK         0.5070 
     43 O          28.5272   29.1580    3.4848 O.2       6 UNK        -0.5237 
     44 N          27.7198   30.9041    4.6943 N.am      7 UNK        -0.4739 
     45 CA         28.9396   31.7123    4.7975 C.3       7 UNK         0.0276 
     46 CB         28.6201   32.9773    5.6147 C.3       7 UNK        -0.1927 
     47 C          29.5650   32.0658    3.4327 C.2       7 UNK         0.5013 
     48 O          29.1526   33.0454    2.8075 O.2       7 UNK        -0.5193 
     49 N          30.5422   31.2618    3.0045 N.am      8 UNK        -0.4253 
     50 CA         31.3223   31.4149    1.7823 C.3       8 UNK         0.0242 
     51 CB         30.4979   30.9477    0.5683 C.3       8 UNK        -0.2000 
     52 C          32.5992   30.5771    1.9170 C.2       8 UNK         0.4948 
     53 O          32.6471   29.6661    2.7488 O.2       8 UNK        -0.5275 
     54 N          33.5977   30.8809    1.0753 N.am      9 UNK        -0.4246 
     55 CA         34.8862   30.1893    0.9472 C.3       9 UNK         0.0261 
     56 CB         34.6884   28.8024    0.2915 C.3       9 UNK        -0.1959 
     57 C          35.6619   30.1375    2.2784 C.2       9 UNK         0.5033 
     58 O          36.3209   31.1164    2.6313 O.2       9 UNK        -0.5390 
     59 N          35.5675   29.0046    2.9860 N.am      10 UNK        -0.4215 
     60 CA         36.1855   28.7597    4.2898 C.3       10 UNK         0.0240 
     61 CB         36.2190   27.2423    4.5415 C.3       10 UNK        -0.1982 
     62 C          35.5006   29.4913    5.4616 C.2       10 UNK         0.4970 
     63 O          36.1022   29.5700    6.5338 O.2       10 UNK        -0.4916 
     64 N          34.2782   29.9965    5.2603 N.am      11 UNK        -0.4279 
     65 CA         33.4821   30.7226    6.2602 C.3       11 UNK         0.1003 
     66 C          32.8809   32.0358    5.6891 C.2       11 UNK         0.5709 
     67 N          32.0970   32.7611    6.4756 N.am      11 UNK        -0.7358 
     68 O          33.1491   32.4381    4.5595 O.2       11 UNK        -0.4999 
     69 C69        32.4599   29.7978    6.9871 C.3       12 UNK        -0.0954 
     70 S70        31.4169   28.7826    5.8810 S.3       12 UNK        -0.2268 
     71 C71        32.2511   27.1769    6.0725 C.3       12 UNK         0.0203 
     72 H72        30.6720   21.0487    0.3307 H         1 UNK         0.0888 
     73 H73        29.6599   20.0917   -0.7524 H         1 UNK         0.0888 
     74 H74        31.4185   20.0337   -0.9049 H         1 UNK         0.0888 
     75 H75        30.6244   23.2188   -0.2183 H         1 UNK         0.3017 
     76 H76        31.0260   24.1416   -2.9399 H         1 UNK         0.0873 
     77 H77        30.9213   26.4356   -1.8615 H         1 UNK         0.0745 
     78 H78        32.1708   25.4038   -1.2583 H         1 UNK         0.0745 
     79 H79        32.3174   24.3583    1.0221 H         1 UNK         0.0705 
     80 H80        32.7276   26.0483    1.1981 H         1 UNK         0.0705 
     81 H81        32.5603   27.0849    3.3714 H         1 UNK         0.1334 
     82 H82        30.7937   24.9369    6.6344 H         1 UNK         0.1417 
     83 H83        30.6160   23.3254    2.6653 H         1 UNK         0.1562 
     84 H84        29.7296   22.8334    6.3026 H         1 UNK         0.0748 
     85 H85        30.3938   21.8928    4.9900 H         1 UNK         0.0748 
     86 H86        27.8112   24.4381    6.0536 H         1 UNK         0.0940 
     87 H87        26.3250   23.9621    5.2854 H         1 UNK         0.0940 
     88 H88        28.5473   25.6177    3.9927 H         1 UNK         0.0703 
     89 H89        27.7338   25.2418    2.0208 H         1 UNK         0.3081 
     90 H90        26.1537   23.6178    0.5889 H         1 UNK         0.0719 
     91 H91        23.5300   25.1988    0.7047 H         1 UNK         0.0809 
     92 H92        24.0387   24.1617   -0.6274 H         1 UNK         0.0809 
     93 H93        23.7112   23.4682    0.9523 H         1 UNK         0.0809 
     94 H94        26.8886   25.2806   -0.6643 H         1 UNK         0.2990 
     95 H95        25.9126   28.5432   -1.2759 H         1 UNK         0.0690 
     96 H96        28.2159   29.4050   -0.8332 H         1 UNK         0.0788 
     97 H97        28.5094   28.0766    0.2911 H         1 UNK         0.0788 
     98 H98        27.2954   29.2882    0.6539 H         1 UNK         0.0788 
     99 H99        28.3039   27.0818   -1.9682 H         1 UNK         0.2993 
    100 H100       26.9229   24.8427   -4.2199 H         1 UNK         0.0949 
    101 H101       26.7381   26.8211   -5.7445 H         1 UNK         0.0767 
    102 H102       28.2817   27.4293   -5.1626 H         1 UNK         0.0767 
    103 H103       28.2050   25.9118   -6.0606 H         1 UNK         0.0767 
    104 H104       29.6085   25.6693   -3.9890 H         1 UNK         0.3013 
    105 H105       26.2779   27.3589    2.8881 H         1 UNK         0.3121 
    106 H106       25.8694   29.1169    5.2185 H         1 UNK         0.0774 
    107 H107       25.0070   30.7034    3.5492 H         1 UNK         0.0815 
    108 H108       25.5824   29.7130    2.2208 H         1 UNK         0.0815 
    109 H109       24.2708   29.1382    3.2466 H         1 UNK         0.0815 
    110 H110       26.9000   31.2874    5.1422 H         1 UNK         0.2987 
    111 H111       29.6727   31.1333    5.3618 H         1 UNK         0.0949 
    112 H112       29.4881   33.6338    5.6777 H         1 UNK         0.0806 
    113 H113       27.8117   33.5556    5.1654 H         1 UNK         0.0806 
    114 H114       28.3294   32.7284    6.6355 H         1 UNK         0.0806 
    115 H115       30.8045   30.4498    3.5534 H         1 UNK         0.3010 
    116 H116       31.5997   32.4649    1.6695 H         1 UNK         0.0829 
    117 H117       29.5714   31.5130    0.4679 H         1 UNK         0.0813 
    118 H118       31.0550   31.0716   -0.3609 H         1 UNK         0.0813 
    119 H119       30.2385   29.8921    0.6561 H         1 UNK         0.0813 
    120 H120       33.4708   31.6698    0.4565 H         1 UNK         0.3038 
    121 H121       35.4933   30.7870    0.2654 H         1 UNK         0.0769 
    122 H122       33.9988   28.1696    0.8504 H         1 UNK         0.0811 
    123 H123       35.6355   28.2680    0.2044 H         1 UNK         0.0811 
    124 H124       34.2872   28.9045   -0.7169 H         1 UNK         0.0811 
    125 H125       34.9569   28.2837    2.6305 H         1 UNK         0.3204 
    126 H126       37.2158   29.1195    4.2493 H         1 UNK         0.0748 
    127 H127       36.8094   26.7291    3.7821 H         1 UNK         0.0771 
    128 H128       35.2192   26.8073    4.5370 H         1 UNK         0.0771 
    129 H129       36.6707   27.0133    5.5078 H         1 UNK         0.0771 
    130 H130       33.8423   29.9147    4.3460 H         1 UNK         0.2980 
    131 H131       34.1678   31.0895    7.0258 H         1 UNK         0.0545 
    132 H132       31.7408   33.6366    6.1285 H         1 UNK         0.3459 
    133 H133       31.8921   32.4749    7.4196 H         1 UNK         0.3459 
    134 H134       33.0071   29.1331    7.6570 H         1 UNK         0.0616 
    135 H135       31.8022   30.3691    7.6430 H         1 UNK         0.0616 
    136 H136       32.1356   26.8421    7.1045 H         1 UNK         0.0634 
    137 H137       33.3210   27.3071    5.9119 H         1 UNK         0.0634 
@<TRIPOS>BOND
     1    1    2 1    
     2    1   72 1    
     3    1   73 1    
     4    1   74 1    
     5    2    3 2    
     6    2    4 am   BACKBONE|DICT|INTERRES
     7    4    5 1    
     8    4   75 1    
     9    5    6 1    
    10    5   35 1    
    11    5   76 1    
    12    6    7 1    
    13    6   77 1    
    14    6   78 1    
    15    7    8 1    
    16    8    9 1    
    17    8   79 1    
    18    8   80 1    
    19    9   10 ar   
    20    9   14 ar   
    21   10   11 ar   
    22   10   81 1    
    23   11   12 ar   
    24   11   71 1    
    25   12   13 ar   
    26   12   82 1    
    27   13   14 ar   
    28   13   15 1    
    29   14   83 1    
    30   15   16 1    
    31   15   84 1    
    32   15   85 1    
    33   16   17 1    
    34   17   18 1    
    35   17   86 1    
    36   17   87 1    
    37   18   19 1    
    38   18   37 1    
    39   18   88 1    
    40   19   20 am   BACKBONE|DICT|INTERRES
    41   19   89 1    
    42   20   21 2    
    43   20   22 1    
    44   22   23 1    
    45   22   24 1    
    46   22   90 1    
    47   23   91 1    
    48   23   92 1    
    49   23   93 1    
    50   24   25 am   BACKBONE|DICT|INTERRES
    51   24   94 1    
    52   25   26 2    
    53   25   27 1    
    54   27   28 1    
    55   27   29 1    
    56   27   95 1    
    57   28   96 1    
    58   28   97 1    
    59   28   98 1    
    60   29   30 am   BACKBONE|DICT|INTERRES
    61   29   99 1    
    62   30   31 2    
    63   30   32 1    
    64   32   33 1    
    65   32   34 1    
    66   32  100 1    
    67   33  101 1    
    68   33  102 1    
    69   33  103 1    
    70   34   35 am   BACKBONE|DICT|INTERRES
    71   34  104 1    
    72   35   36 2    
    73   37   38 2    
    74   37   39 am   BACKBONE|DICT|INTERRES
    75   39   40 1    
    76   39  105 1    
    77   40   41 1    
    78   40   42 1    
    79   40  106 1    
    80   41  107 1    
    81   41  108 1    
    82   41  109 1    
    83   42   43 2    
    84   42   44 am   BACKBONE|DICT|INTERRES
    85   44   45 1    
    86   44  110 1    
    87   45   46 1    
    88   45   47 1    
    89   45  111 1    
    90   46  112 1    
    91   46  113 1    
    92   46  114 1    
    93   47   48 2    
    94   47   49 am   BACKBONE|DICT|INTERRES
    95   49   50 1    
    96   49  115 1    
    97   50   51 1    
    98   50   52 1    
    99   50  116 1    
   100   51  117 1    
   101   51  118 1    
   102   51  119 1    
   103   52   53 2    
   104   52   54 am   BACKBONE|DICT|INTERRES
   105   54   55 1    
   106   54  120 1    
   107   55   56 1    
   108   55   57 1    
   109   55  121 1    
   110   56  122 1    
   111   56  123 1    
   112   56  124 1    
   113   57   58 2    
   114   57   59 am   BACKBONE|DICT|INTERRES
   115   59   60 1    
   116   59  125 1    
   117   60   61 1    
   118   60   62 1    
   119   60  126 1    
   120   61  127 1    
   121   61  128 1    
   122   61  129 1    
   123   62   63 2    
   124   62   64 am   BACKBONE|DICT|INTERRES
   125   64   65 1    
   126   64  130 1    
   127   65   66 1    
   128   65   69 1    
   129   65  131 1    
   130   66   67 am   BACKBONE|DICT|INTERRES
   131   66   68 2    
   132   67  132 1    
   133   67  133 1    
   134   69   70 1    
   135   69  134 1    
   136   69  135 1    
   137   70   71 1    
   138   71  136 1    
   139   71  137 1    
@<TRIPOS>SUBSTRUCTURE
     1 UNK         1 GROUP             0       ****    0 ROOT    
