@<TRIPOS>MOLECULE
3R136
137   139    1
SMALL
USER_CHARGES


@<TRIPOS>ATOM
      1 CA         27.6154   20.1185    4.4427 C.3       0 UNK        -0.1979 
      2 C          27.3132   20.7525    3.0930 C.2       0 UNK         0.4864 
      3 O          26.4446   20.2638    2.3695 O.2       0 UNK        -0.5359 
      4 N          28.0278   21.8325    2.7497 N.am      1 UNK        -0.4318 
      5 CA         27.8547   22.6082    1.5154 C.3       1 UNK         0.0824 
      6 C6         29.0439   23.5686    1.2519 C.3       12 UNK        -0.0944 
      7 S7         29.5116   24.5818    2.7037 S.3       12 UNK        -0.2672 
      8 C8         31.3283   24.4666    2.6830 C.3       12 UNK         0.0333 
      9 C9         31.9351   25.4962    1.7420 C.ar      12 UNK        -0.0807 
     10 C10        32.4108   26.7100    2.2445 C.ar      12 UNK        -0.0894 
     11 C11        32.9720   27.6664    1.3914 C.ar      12 UNK        -0.0804 
     12 C12        33.0272   27.4085    0.0179 C.ar      12 UNK        -0.0824 
     13 C13        32.5368   26.2051   -0.4989 C.ar      12 UNK        -0.0762 
     14 C14        32.0147   25.2431    0.3707 C.ar      12 UNK        -0.0782 
     15 C15        32.5512   25.9491   -1.9988 C.3       12 UNK         0.0230 
     16 S16        31.2297   26.8648   -2.8576 S.3       12 UNK        -0.2608 
     17 C17        29.7216   26.1295   -2.1336 C.3       12 UNK        -0.0989 
     18 CA         28.4448   26.9496   -2.4513 C.3       5 UNK         0.0716 
     19 N          27.2364   26.1485   -2.3017 N.am      5 UNK        -0.4135 
     20 C          26.6926   25.3594   -3.2318 C.2       4 UNK         0.5031 
     21 O          27.2053   25.1538   -4.3331 O.2       4 UNK        -0.5229 
     22 CA         25.3534   24.6767   -2.8918 C.3       4 UNK         0.0329 
     23 CB         25.5282   23.1500   -2.8223 C.3       4 UNK        -0.2001 
     24 N          24.7358   25.1604   -1.6479 N.am      4 UNK        -0.4303 
     25 C          24.0663   26.3207   -1.5448 C.2       3 UNK         0.5044 
     26 O          23.9406   27.1052   -2.4862 O.2       3 UNK        -0.5152 
     27 CA         23.4058   26.6800   -0.1988 C.3       3 UNK         0.0319 
     28 CB         21.8794   26.7901   -0.3613 C.3       3 UNK        -0.2001 
     29 N          23.6879   25.7179    0.8677 N.am      3 UNK        -0.4354 
     30 C          24.6882   25.8168    1.7525 C.2       2 UNK         0.4964 
     31 O          25.4927   26.7476    1.7782 O.2       2 UNK        -0.5047 
     32 CA         24.8318   24.6772    2.7831 C.3       2 UNK         0.0288 
     33 CB         23.6292   23.7054    2.8285 C.3       2 UNK        -0.2113 
     34 N          26.0779   23.9262    2.5946 N.am      2 UNK        -0.4145 
     35 C          26.5027   23.3483    1.4595 C.2       1 UNK         0.5006 
     36 O          25.8717   23.3685    0.4014 O.2       1 UNK        -0.5103 
     37 C          28.2827   28.1893   -1.5527 C.2       5 UNK         0.5055 
     38 O          27.3616   28.2404   -0.7311 O.2       5 UNK        -0.5220 
     39 N          29.1769   29.1695   -1.7199 N.am      6 UNK        -0.4450 
     40 CA         29.2254   30.4140   -0.9515 C.3       6 UNK         0.0367 
     41 CB         29.9922   31.4710   -1.7684 C.3       6 UNK        -0.1929 
     42 C          29.8380   30.1870    0.4438 C.2       6 UNK         0.5070 
     43 O          30.9457   30.6540    0.7123 O.2       6 UNK        -0.5237 
     44 N          29.1116   29.4500    1.2941 N.am      7 UNK        -0.4739 
     45 CA         29.4768   29.1285    2.6755 C.3       7 UNK         0.0276 
     46 CB         28.4140   28.1895    3.2667 C.3       7 UNK        -0.1927 
     47 C          29.6344   30.3885    3.5448 C.2       7 UNK         0.5013 
     48 O          28.8125   31.3036    3.4437 O.2       7 UNK        -0.5193 
     49 N          30.6726   30.4085    4.3876 N.am      8 UNK        -0.4253 
     50 CA         31.0405   31.5352    5.2388 C.3       8 UNK         0.0242 
     51 CB         31.7439   32.6195    4.3974 C.3       8 UNK        -0.2000 
     52 C          31.9682   31.0426    6.3524 C.2       8 UNK         0.4948 
     53 O          32.6106   29.9981    6.2025 O.2       8 UNK        -0.5275 
     54 N          32.0749   31.8424    7.4221 N.am      9 UNK        -0.4246 
     55 CA         32.9440   31.6033    8.5822 C.3       9 UNK         0.0261 
     56 CB         32.6328   32.6462    9.6684 C.3       9 UNK        -0.1959 
     57 C          34.4515   31.5952    8.2597 C.2       9 UNK         0.5033 
     58 O          35.2277   31.0458    9.0420 O.2       9 UNK        -0.5390 
     59 N          34.8379   32.1789    7.1153 N.am      10 UNK        -0.4215 
     60 CA         36.1853   32.1015    6.5462 C.3       10 UNK         0.0240 
     61 CB         36.2920   33.0686    5.3556 C.3       10 UNK        -0.1982 
     62 C          36.5715   30.6731    6.1177 C.2       10 UNK         0.4970 
     63 O          37.7439   30.3126    6.2302 O.2       10 UNK        -0.4916 
     64 N          35.5871   29.8914    5.6547 N.am      11 UNK        -0.4279 
     65 CA         35.7276   28.4559    5.3815 C.3       11 UNK         0.1003 
     66 C          35.4379   27.6217    6.6558 C.2       11 UNK         0.5709 
     67 N          34.3629   27.9146    7.3797 N.am      11 UNK        -0.7358 
     68 O          36.1902   26.7092    6.9885 O.2       11 UNK        -0.4999 
     69 C69        34.8158   27.9895    4.2206 C.3       12 UNK        -0.0954 
     70 S70        35.1650   28.8335    2.6423 S.3       12 UNK        -0.2268 
     71 C71        33.4909   28.9892    1.9435 C.3       12 UNK         0.0203 
     72 H72        28.4080   20.6461    4.9732 H         1 UNK         0.0888 
     73 H73        27.9280   19.0832    4.3094 H         1 UNK         0.0888 
     74 H74        26.7238   20.1277    5.0692 H         1 UNK         0.0888 
     75 H75        28.7304   22.1891    3.3826 H         1 UNK         0.3017 
     76 H76        27.8349   21.8905    0.6920 H         1 UNK         0.0873 
     77 H77        28.8362   24.2320    0.4099 H         1 UNK         0.0745 
     78 H78        29.9029   22.9711    0.9456 H         1 UNK         0.0745 
     79 H79        31.6956   24.6284    3.6977 H         1 UNK         0.0705 
     80 H80        31.6463   23.4602    2.4074 H         1 UNK         0.0705 
     81 H81        32.3370   26.9071    3.3036 H         1 UNK         0.1334 
     82 H82        33.4355   28.1516   -0.6535 H         1 UNK         0.1417 
     83 H83        31.6428   24.3084   -0.0247 H         1 UNK         0.1562 
     84 H84        32.4488   24.8841   -2.2132 H         1 UNK         0.0748 
     85 H85        33.5157   26.2514   -2.4093 H         1 UNK         0.0748 
     86 H86        29.8322   26.0096   -1.0555 H         1 UNK         0.0940 
     87 H87        29.6335   25.1209   -2.5409 H         1 UNK         0.0940 
     88 H88        28.4865   27.3038   -3.4839 H         1 UNK         0.0703 
     89 H89        26.7256   26.3351   -1.4472 H         1 UNK         0.3081 
     90 H90        24.6686   24.8914   -3.7151 H         1 UNK         0.0719 
     91 H91        26.2922   22.8614   -2.1004 H         1 UNK         0.0809 
     92 H92        24.5982   22.6519   -2.5477 H         1 UNK         0.0809 
     93 H93        25.8355   22.7509   -3.7898 H         1 UNK         0.0809 
     94 H94        24.8619   24.5764   -0.8257 H         1 UNK         0.2990 
     95 H95        23.7846   27.6632    0.0889 H         1 UNK         0.0690 
     96 H96        21.4025   27.0936    0.5709 H         1 UNK         0.0788 
     97 H97        21.4366   25.8432   -0.6729 H         1 UNK         0.0788 
     98 H98        21.6166   27.5357   -1.1131 H         1 UNK         0.0788 
     99 H99        23.0938   24.9020    0.9107 H         1 UNK         0.2993 
    100 H100       24.9029   25.1617    3.7582 H         1 UNK         0.0949 
    101 H101       22.6954   24.2375    3.0163 H         1 UNK         0.0767 
    102 H102       23.5156   23.1413    1.9018 H         1 UNK         0.0767 
    103 H103       23.7478   22.9814    3.6349 H         1 UNK         0.0767 
    104 H104       26.6966   23.8913    3.3923 H         1 UNK         0.3013 
    105 H105       29.9383   29.0096   -2.3661 H         1 UNK         0.3121 
    106 H106       28.2070   30.7815   -0.8066 H         1 UNK         0.0774 
    107 H107       29.5047   31.6652   -2.7238 H         1 UNK         0.0815 
    108 H108       31.0181   31.1605   -1.9712 H         1 UNK         0.0815 
    109 H109       30.0389   32.4192   -1.2311 H         1 UNK         0.0815 
    110 H110       28.2328   29.0747    0.9530 H         1 UNK         0.2987 
    111 H111       30.4286   28.5993    2.6427 H         1 UNK         0.0949 
    112 H112       27.4427   28.6795    3.3467 H         1 UNK         0.0806 
    113 H113       28.2833   27.2998    2.6507 H         1 UNK         0.0806 
    114 H114       28.6975   27.8550    4.2653 H         1 UNK         0.0806 
    115 H115       31.2764   29.6024    4.4882 H         1 UNK         0.3010 
    116 H116       30.1379   31.9463    5.6964 H         1 UNK         0.0829 
    117 H117       31.0920   32.9985    3.6100 H         1 UNK         0.0813 
    118 H118       32.0325   33.4748    5.0094 H         1 UNK         0.0813 
    119 H119       32.6470   32.2350    3.9210 H         1 UNK         0.0813 
    120 H120       31.5164   32.6842    7.4511 H         1 UNK         0.3038 
    121 H121       32.6987   30.6150    8.9769 H         1 UNK         0.0769 
    122 H122       32.8364   33.6612    9.3249 H         1 UNK         0.0811 
    123 H123       33.2402   32.4763   10.5588 H         1 UNK         0.0811 
    124 H124       31.5889   32.5981    9.9791 H         1 UNK         0.0811 
    125 H125       34.1331   32.6372    6.5577 H         1 UNK         0.3204 
    126 H126       36.8936   32.4205    7.3139 H         1 UNK         0.0748 
    127 H127       36.0915   34.0964    5.6590 H         1 UNK         0.0771 
    128 H128       37.2953   33.0491    4.9273 H         1 UNK         0.0771 
    129 H129       35.5931   32.8096    4.5589 H         1 UNK         0.0771 
    130 H130       34.6383   30.2419    5.6477 H         1 UNK         0.2980 
    131 H131       36.7581   28.2489    5.0856 H         1 UNK         0.0545 
    132 H132       33.7231   28.6403    7.0743 H         1 UNK         0.3459 
    133 H133       34.1666   27.3835    8.2125 H         1 UNK         0.3459 
    134 H134       34.9257   26.9165    4.0523 H         1 UNK         0.0616 
    135 H135       33.7731   28.1565    4.4925 H         1 UNK         0.0616 
    136 H136       33.5206   29.7373    1.1501 H         1 UNK         0.0634 
    137 H137       32.8091   29.3829    2.6972 H         1 UNK         0.0634 
@<TRIPOS>BOND
     1    1    2 1    
     2    1   72 1    
     3    1   73 1    
     4    1   74 1    
     5    2    3 2    
     6    2    4 am   BACKBONE|DICT|INTERRES
     7    4    5 1    
     8    4   75 1    
     9    5    6 1    
    10    5   35 1    
    11    5   76 1    
    12    6    7 1    
    13    6   77 1    
    14    6   78 1    
    15    7    8 1    
    16    8    9 1    
    17    8   79 1    
    18    8   80 1    
    19    9   10 ar   
    20    9   14 ar   
    21   10   11 ar   
    22   10   81 1    
    23   11   12 ar   
    24   11   71 1    
    25   12   13 ar   
    26   12   82 1    
    27   13   14 ar   
    28   13   15 1    
    29   14   83 1    
    30   15   16 1    
    31   15   84 1    
    32   15   85 1    
    33   16   17 1    
    34   17   18 1    
    35   17   86 1    
    36   17   87 1    
    37   18   19 1    
    38   18   37 1    
    39   18   88 1    
    40   19   20 am   BACKBONE|DICT|INTERRES
    41   19   89 1    
    42   20   21 2    
    43   20   22 1    
    44   22   23 1    
    45   22   24 1    
    46   22   90 1    
    47   23   91 1    
    48   23   92 1    
    49   23   93 1    
    50   24   25 am   BACKBONE|DICT|INTERRES
    51   24   94 1    
    52   25   26 2    
    53   25   27 1    
    54   27   28 1    
    55   27   29 1    
    56   27   95 1    
    57   28   96 1    
    58   28   97 1    
    59   28   98 1    
    60   29   30 am   BACKBONE|DICT|INTERRES
    61   29   99 1    
    62   30   31 2    
    63   30   32 1    
    64   32   33 1    
    65   32   34 1    
    66   32  100 1    
    67   33  101 1    
    68   33  102 1    
    69   33  103 1    
    70   34   35 am   BACKBONE|DICT|INTERRES
    71   34  104 1    
    72   35   36 2    
    73   37   38 2    
    74   37   39 am   BACKBONE|DICT|INTERRES
    75   39   40 1    
    76   39  105 1    
    77   40   41 1    
    78   40   42 1    
    79   40  106 1    
    80   41  107 1    
    81   41  108 1    
    82   41  109 1    
    83   42   43 2    
    84   42   44 am   BACKBONE|DICT|INTERRES
    85   44   45 1    
    86   44  110 1    
    87   45   46 1    
    88   45   47 1    
    89   45  111 1    
    90   46  112 1    
    91   46  113 1    
    92   46  114 1    
    93   47   48 2    
    94   47   49 am   BACKBONE|DICT|INTERRES
    95   49   50 1    
    96   49  115 1    
    97   50   51 1    
    98   50   52 1    
    99   50  116 1    
   100   51  117 1    
   101   51  118 1    
   102   51  119 1    
   103   52   53 2    
   104   52   54 am   BACKBONE|DICT|INTERRES
   105   54   55 1    
   106   54  120 1    
   107   55   56 1    
   108   55   57 1    
   109   55  121 1    
   110   56  122 1    
   111   56  123 1    
   112   56  124 1    
   113   57   58 2    
   114   57   59 am   BACKBONE|DICT|INTERRES
   115   59   60 1    
   116   59  125 1    
   117   60   61 1    
   118   60   62 1    
   119   60  126 1    
   120   61  127 1    
   121   61  128 1    
   122   61  129 1    
   123   62   63 2    
   124   62   64 am   BACKBONE|DICT|INTERRES
   125   64   65 1    
   126   64  130 1    
   127   65   66 1    
   128   65   69 1    
   129   65  131 1    
   130   66   67 am   BACKBONE|DICT|INTERRES
   131   66   68 2    
   132   67  132 1    
   133   67  133 1    
   134   69   70 1    
   135   69  134 1    
   136   69  135 1    
   137   70   71 1    
   138   71  136 1    
   139   71  137 1    
@<TRIPOS>SUBSTRUCTURE
     1 UNK         1 GROUP             0       ****    0 ROOT    
