@<TRIPOS>MOLECULE
3R136
137   139    1
SMALL
USER_CHARGES


@<TRIPOS>ATOM
      1 CA         32.6834   23.3502   -1.8464 C.3       0 UNK        -0.1979 
      2 C          31.8313   24.0484   -0.7968 C.2       0 UNK         0.4864 
      3 O          32.1274   25.1843   -0.4278 O.2       0 UNK        -0.5359 
      4 N          30.7714   23.3795   -0.3219 N.am      1 UNK        -0.4318 
      5 CA         29.8634   23.8713    0.7249 C.3       1 UNK         0.0824 
      6 C6         29.0968   22.7091    1.4078 C.3       12 UNK        -0.0944 
      7 S7         30.2156   21.5556    2.2772 S.3       12 UNK        -0.2672 
      8 C8         30.0227   22.0666    4.0178 C.3       12 UNK         0.0333 
      9 C9         30.7089   23.3962    4.2993 C.ar      12 UNK        -0.0807 
     10 C10        32.0417   23.4316    4.7257 C.ar      12 UNK        -0.0894 
     11 C11        32.6773   24.6558    4.9599 C.ar      12 UNK        -0.0804 
     12 C12        31.9712   25.8447    4.7598 C.ar      12 UNK        -0.0824 
     13 C13        30.6448   25.8244    4.3270 C.ar      12 UNK        -0.0762 
     14 C14        30.0137   24.5954    4.1177 C.ar      12 UNK        -0.0782 
     15 C15        29.9319   27.1294    4.0049 C.3       12 UNK         0.0230 
     16 S16        28.2791   27.2385    4.7607 S.3       12 UNK        -0.2608 
     17 C17        27.6524   28.7508    3.9578 C.3       12 UNK        -0.0989 
     18 CA         27.2400   28.5278    2.4750 C.3       5 UNK         0.0716 
     19 N          26.2849   27.4347    2.2766 N.am      5 UNK        -0.4135 
     20 C          25.0120   27.3995    2.6938 C.2       4 UNK         0.5031 
     21 O          24.4609   28.3175    3.3042 O.2       4 UNK        -0.5229 
     22 CA         24.2197   26.1334    2.3346 C.3       4 UNK         0.0329 
     23 CB         22.7216   26.2274    2.6917 C.3       4 UNK        -0.2001 
     24 N          24.3848   25.8614    0.9105 N.am      4 UNK        -0.4303 
     25 C          24.2641   24.6771    0.3075 C.2       3 UNK         0.5044 
     26 O          23.9610   23.6344    0.8882 O.2       3 UNK        -0.5152 
     27 CA         24.5433   24.6500   -1.2059 C.3       3 UNK         0.0319 
     28 CB         23.5103   25.4820   -1.9940 C.3       3 UNK        -0.2001 
     29 N          25.9220   25.0227   -1.5527 N.am      3 UNK        -0.4354 
     30 C          26.5376   26.2049   -1.3979 C.2       2 UNK         0.4964 
     31 O          26.0015   27.2165   -0.9359 O.2       2 UNK        -0.5047 
     32 CA         28.0303   26.2276   -1.7739 C.3       2 UNK         0.0288 
     33 CB         28.6806   27.6056   -1.5429 C.3       2 UNK        -0.2113 
     34 N          28.8069   25.1876   -1.0847 N.am      2 UNK        -0.4145 
     35 C          28.8843   24.9655    0.2395 C.2       1 UNK         0.5006 
     36 O          28.2156   25.5762    1.0768 O.2       1 UNK        -0.5103 
     37 C          26.8087   29.8296    1.7689 C.2       5 UNK         0.5055 
     38 O          26.8806   30.9078    2.3629 O.2       5 UNK        -0.5220 
     39 N          26.4092   29.7199    0.4913 N.am      6 UNK        -0.4450 
     40 CA         26.2038   30.8680   -0.4034 C.3       6 UNK         0.0367 
     41 CB         25.4696   30.3998   -1.6700 C.3       6 UNK        -0.1929 
     42 C          27.5234   31.5809   -0.7720 C.2       6 UNK         0.5070 
     43 O          27.4989   32.7429   -1.1778 O.2       6 UNK        -0.5237 
     44 N          28.6443   30.8738   -0.6046 N.am      7 UNK        -0.4739 
     45 CA         30.0219   31.3331   -0.7065 C.3       7 UNK         0.0276 
     46 CB         30.5071   31.1804   -2.1594 C.3       7 UNK        -0.1927 
     47 C          30.8561   30.4798    0.2636 C.2       7 UNK         0.5013 
     48 O          30.3402   29.4925    0.7967 O.2       7 UNK        -0.5193 
     49 N          32.1248   30.8671    0.4634 N.am      8 UNK        -0.4253 
     50 CA         33.1324   30.1782    1.2863 C.3       8 UNK         0.0242 
     51 CB         33.5474   28.8438    0.6279 C.3       8 UNK        -0.2000 
     52 C          32.7034   30.0017    2.7571 C.2       8 UNK         0.4948 
     53 O          32.8374   28.9090    3.3123 O.2       8 UNK        -0.5275 
     54 N          32.1879   31.0851    3.3589 N.am      9 UNK        -0.4246 
     55 CA         31.6971   31.1504    4.7399 C.3       9 UNK         0.0261 
     56 CB         31.2671   32.5909    5.0618 C.3       9 UNK        -0.1959 
     57 C          32.7396   30.6463    5.7537 C.2       9 UNK         0.5033 
     58 O          33.8239   31.2272    5.8535 O.2       9 UNK        -0.5390 
     59 N          32.4084   29.5333    6.4255 N.am      10 UNK        -0.4215 
     60 CA         33.2497   28.7706    7.3590 C.3       10 UNK         0.0240 
     61 CB         33.4612   29.5710    8.6621 C.3       10 UNK        -0.1982 
     62 C          34.5836   28.2667    6.7607 C.2       10 UNK         0.4970 
     63 O          35.5002   27.9580    7.5238 O.2       10 UNK        -0.4916 
     64 N          34.6761   28.1902    5.4232 N.am      11 UNK        -0.4279 
     65 CA         35.8905   27.8772    4.6528 C.3       11 UNK         0.1003 
     66 C          37.0309   28.9291    4.8254 C.2       11 UNK         0.5709 
     67 N          36.7319   30.1633    5.2202 N.am      11 UNK        -0.7358 
     68 O          38.1976   28.6428    4.5662 O.2       11 UNK        -0.4999 
     69 C69        36.3526   26.3972    4.8195 C.3       12 UNK        -0.0954 
     70 S70        35.2013   25.2268    4.0209 S.3       12 UNK        -0.2268 
     71 C71        34.1324   24.7110    5.4013 C.3       12 UNK         0.0203 
     72 H72        32.7018   23.9355   -2.7654 H         1 UNK         0.0888 
     73 H73        33.7072   23.2464   -1.4879 H         1 UNK         0.0888 
     74 H74        32.3055   22.3560   -2.0842 H         1 UNK         0.0888 
     75 H75        30.5908   22.4401   -0.6476 H         1 UNK         0.3017 
     76 H76        30.4854   24.3560    1.4789 H         1 UNK         0.0873 
     77 H77        28.5314   22.1419    0.6662 H         1 UNK         0.0745 
     78 H78        28.3555   23.0815    2.1166 H         1 UNK         0.0745 
     79 H79        28.9632   22.1209    4.2730 H         1 UNK         0.0705 
     80 H80        30.4469   21.2913    4.6577 H         1 UNK         0.0705 
     81 H81        32.5869   22.5073    4.8607 H         1 UNK         0.1334 
     82 H82        32.4702   26.7903    4.9029 H         1 UNK         0.1417 
     83 H83        28.9885   24.5794    3.7742 H         1 UNK         0.1562 
     84 H84        29.8568   27.2041    2.9200 H         1 UNK         0.0748 
     85 H85        30.5209   27.9863    4.3315 H         1 UNK         0.0748 
     86 H86        28.4231   29.5208    4.0301 H         1 UNK         0.0940 
     87 H87        26.8038   29.1180    4.5378 H         1 UNK         0.0940 
     88 H88        28.1338   28.2186    1.9345 H         1 UNK         0.0703 
     89 H89        26.6711   26.6291    1.7919 H         1 UNK         0.3081 
     90 H90        24.6625   25.3139    2.9046 H         1 UNK         0.0719 
     91 H91        22.5843   26.4250    3.7555 H         1 UNK         0.0809 
     92 H92        22.2287   27.0299    2.1418 H         1 UNK         0.0809 
     93 H93        22.1986   25.2976    2.4679 H         1 UNK         0.0809 
     94 H94        24.7163   26.6344    0.3382 H         1 UNK         0.2990 
     95 H95        24.4293   23.6125   -1.5245 H         1 UNK         0.0690 
     96 H96        23.6584   25.3774   -3.0687 H         1 UNK         0.0788 
     97 H97        23.5600   26.5444   -1.7539 H         1 UNK         0.0788 
     98 H98        22.4953   25.1490   -1.7736 H         1 UNK         0.0788 
     99 H99        26.4863   24.2592   -1.8992 H         1 UNK         0.2993 
    100 H100       28.0837   26.0118   -2.8421 H         1 UNK         0.0949 
    101 H101       28.6444   27.8885   -0.4918 H         1 UNK         0.0767 
    102 H102       29.7270   27.6076   -1.8486 H         1 UNK         0.0767 
    103 H103       28.1738   28.3820   -2.1166 H         1 UNK         0.0767 
    104 H104       29.3872   24.6112   -1.6774 H         1 UNK         0.3013 
    105 H105       26.3328   28.7977    0.0670 H         1 UNK         0.3121 
    106 H106       25.5702   31.5933    0.1114 H         1 UNK         0.0774 
    107 H107       26.0634   29.6859   -2.2416 H         1 UNK         0.0815 
    108 H108       24.5197   29.9239   -1.4258 H         1 UNK         0.0815 
    109 H109       25.2516   31.2422   -2.3277 H         1 UNK         0.0815 
    110 H110       28.5733   29.9468   -0.2036 H         1 UNK         0.2987 
    111 H111       30.0830   32.3782   -0.3952 H         1 UNK         0.0949 
    112 H112       29.8857   31.7552   -2.8465 H         1 UNK         0.0806 
    113 H113       31.5305   31.5383   -2.2757 H         1 UNK         0.0806 
    114 H114       30.4856   30.1388   -2.4826 H         1 UNK         0.0806 
    115 H115       32.4474   31.6995   -0.0109 H         1 UNK         0.3010 
    116 H116       34.0132   30.8218    1.3043 H         1 UNK         0.0829 
    117 H117       32.7249   28.1267    0.6123 H         1 UNK         0.0813 
    118 H118       34.3700   28.3774    1.1716 H         1 UNK         0.0813 
    119 H119       33.8811   28.9926   -0.3987 H         1 UNK         0.0813 
    120 H120       32.1336   31.9399    2.8252 H         1 UNK         0.3038 
    121 H121       30.8108   30.5154    4.7958 H         1 UNK         0.0769 
    122 H122       30.4726   32.9280    4.3957 H         1 UNK         0.0811 
    123 H123       32.1002   33.2897    4.9739 H         1 UNK         0.0811 
    124 H124       30.8866   32.6655    6.0815 H         1 UNK         0.0811 
    125 H125       31.4971   29.1340    6.2500 H         1 UNK         0.3204 
    126 H126       32.6830   27.8731    7.6116 H         1 UNK         0.0748 
    127 H127       34.0784   30.4548    8.4965 H         1 UNK         0.0771 
    128 H128       32.5118   29.8997    9.0847 H         1 UNK         0.0771 
    129 H129       33.9574   28.9655    9.4216 H         1 UNK         0.0771 
    130 H130       33.8863   28.4799    4.8526 H         1 UNK         0.2980 
    131 H131       35.5980   28.0001    3.6095 H         1 UNK         0.0545 
    132 H132       37.4713   30.8403    5.3186 H         1 UNK         0.3459 
    133 H133       35.7757   30.4258    5.4290 H         1 UNK         0.3459 
    134 H134       36.4977   26.1338    5.8677 H         1 UNK         0.0616 
    135 H135       37.3188   26.2390    4.3383 H         1 UNK         0.0616 
    136 H136       34.2265   25.4016    6.2391 H         1 UNK         0.0634 
    137 H137       34.4672   23.7391    5.7663 H         1 UNK         0.0634 
@<TRIPOS>BOND
     1    1    2 1    
     2    1   72 1    
     3    1   73 1    
     4    1   74 1    
     5    2    3 2    
     6    2    4 am   BACKBONE|DICT|INTERRES
     7    4    5 1    
     8    4   75 1    
     9    5    6 1    
    10    5   35 1    
    11    5   76 1    
    12    6    7 1    
    13    6   77 1    
    14    6   78 1    
    15    7    8 1    
    16    8    9 1    
    17    8   79 1    
    18    8   80 1    
    19    9   10 ar   
    20    9   14 ar   
    21   10   11 ar   
    22   10   81 1    
    23   11   12 ar   
    24   11   71 1    
    25   12   13 ar   
    26   12   82 1    
    27   13   14 ar   
    28   13   15 1    
    29   14   83 1    
    30   15   16 1    
    31   15   84 1    
    32   15   85 1    
    33   16   17 1    
    34   17   18 1    
    35   17   86 1    
    36   17   87 1    
    37   18   19 1    
    38   18   37 1    
    39   18   88 1    
    40   19   20 am   BACKBONE|DICT|INTERRES
    41   19   89 1    
    42   20   21 2    
    43   20   22 1    
    44   22   23 1    
    45   22   24 1    
    46   22   90 1    
    47   23   91 1    
    48   23   92 1    
    49   23   93 1    
    50   24   25 am   BACKBONE|DICT|INTERRES
    51   24   94 1    
    52   25   26 2    
    53   25   27 1    
    54   27   28 1    
    55   27   29 1    
    56   27   95 1    
    57   28   96 1    
    58   28   97 1    
    59   28   98 1    
    60   29   30 am   BACKBONE|DICT|INTERRES
    61   29   99 1    
    62   30   31 2    
    63   30   32 1    
    64   32   33 1    
    65   32   34 1    
    66   32  100 1    
    67   33  101 1    
    68   33  102 1    
    69   33  103 1    
    70   34   35 am   BACKBONE|DICT|INTERRES
    71   34  104 1    
    72   35   36 2    
    73   37   38 2    
    74   37   39 am   BACKBONE|DICT|INTERRES
    75   39   40 1    
    76   39  105 1    
    77   40   41 1    
    78   40   42 1    
    79   40  106 1    
    80   41  107 1    
    81   41  108 1    
    82   41  109 1    
    83   42   43 2    
    84   42   44 am   BACKBONE|DICT|INTERRES
    85   44   45 1    
    86   44  110 1    
    87   45   46 1    
    88   45   47 1    
    89   45  111 1    
    90   46  112 1    
    91   46  113 1    
    92   46  114 1    
    93   47   48 2    
    94   47   49 am   BACKBONE|DICT|INTERRES
    95   49   50 1    
    96   49  115 1    
    97   50   51 1    
    98   50   52 1    
    99   50  116 1    
   100   51  117 1    
   101   51  118 1    
   102   51  119 1    
   103   52   53 2    
   104   52   54 am   BACKBONE|DICT|INTERRES
   105   54   55 1    
   106   54  120 1    
   107   55   56 1    
   108   55   57 1    
   109   55  121 1    
   110   56  122 1    
   111   56  123 1    
   112   56  124 1    
   113   57   58 2    
   114   57   59 am   BACKBONE|DICT|INTERRES
   115   59   60 1    
   116   59  125 1    
   117   60   61 1    
   118   60   62 1    
   119   60  126 1    
   120   61  127 1    
   121   61  128 1    
   122   61  129 1    
   123   62   63 2    
   124   62   64 am   BACKBONE|DICT|INTERRES
   125   64   65 1    
   126   64  130 1    
   127   65   66 1    
   128   65   69 1    
   129   65  131 1    
   130   66   67 am   BACKBONE|DICT|INTERRES
   131   66   68 2    
   132   67  132 1    
   133   67  133 1    
   134   69   70 1    
   135   69  134 1    
   136   69  135 1    
   137   70   71 1    
   138   71  136 1    
   139   71  137 1    
@<TRIPOS>SUBSTRUCTURE
     1 UNK         1 GROUP             0       ****    0 ROOT    
