@<TRIPOS>MOLECULE
3R136
137   139    1
SMALL
USER_CHARGES


@<TRIPOS>ATOM
      1 CA         25.9952   28.5887   -1.1590 C.3       0 UNK        -0.1979 
      2 C          26.6452   27.2399   -0.8984 C.2       0 UNK         0.4864 
      3 O          26.0624   26.4041   -0.2076 O.2       0 UNK        -0.5359 
      4 N          27.8373   27.0001   -1.4609 N.am      1 UNK        -0.4318 
      5 CA         28.6385   25.7736   -1.3038 C.3       1 UNK         0.0824 
      6 C6         30.0143   25.9110   -1.9959 C.3       12 UNK        -0.0944 
      7 S7         31.0502   27.2065   -1.2313 S.3       12 UNK        -0.2672 
      8 C8         32.4744   26.2372   -0.6445 C.3       12 UNK         0.0333 
      9 C9         32.3092   25.7830    0.7982 C.ar      12 UNK        -0.0807 
     10 C10        33.0420   26.4073    1.8132 C.ar      12 UNK        -0.0894 
     11 C11        32.9754   25.9450    3.1308 C.ar      12 UNK        -0.0804 
     12 C12        32.1449   24.8580    3.4282 C.ar      12 UNK        -0.0824 
     13 C13        31.3833   24.2431    2.4291 C.ar      12 UNK        -0.0762 
     14 C14        31.4765   24.7042    1.1129 C.ar      12 UNK        -0.0782 
     15 C15        30.4945   23.0526    2.7719 C.3       12 UNK         0.0230 
     16 S16        28.7134   23.4248    2.6412 S.3       12 UNK        -0.2608 
     17 C17        28.5364   24.8941    3.7089 C.3       12 UNK        -0.0989 
     18 CA         28.0746   26.1128    2.8588 C.3       5 UNK         0.0716 
     19 N          26.6470   26.0659    2.5195 N.am      5 UNK        -0.4135 
     20 C          25.6031   26.0692    3.3607 C.2       4 UNK         0.5031 
     21 O          25.6894   26.0842    4.5900 O.2       4 UNK        -0.5229 
     22 CA         24.2092   26.0336    2.7124 C.3       4 UNK         0.0329 
     23 CB         23.7576   27.4501    2.3197 C.3       4 UNK        -0.2001 
     24 N          24.1402   25.1556    1.5402 N.am      4 UNK        -0.4303 
     25 C          24.1813   23.8175    1.5940 C.2       3 UNK         0.5044 
     26 O          24.3052   23.1780    2.6391 O.2       3 UNK        -0.5152 
     27 CA         24.0102   23.0574    0.2729 C.3       3 UNK         0.0319 
     28 CB         22.5277   23.0554   -0.1546 C.3       3 UNK        -0.2001 
     29 N          24.8635   23.5657   -0.8087 N.am      3 UNK        -0.4354 
     30 C          25.1703   22.8420   -1.8990 C.2       2 UNK         0.4964 
     31 O          24.7914   21.6822   -2.0712 O.2       2 UNK        -0.5047 
     32 CA         26.0181   23.4954   -3.0077 C.3       2 UNK         0.0288 
     33 CB         25.1125   23.9975   -4.1447 C.3       2 UNK        -0.2113 
     34 N          26.8577   24.5999   -2.5499 N.am      2 UNK        -0.4145 
     35 C          27.9325   24.4753   -1.7595 C.2       1 UNK         0.5006 
     36 O          28.3731   23.3894   -1.3802 O.2       1 UNK        -0.5103 
     37 C          28.5183   27.4732    3.4392 C.2       5 UNK         0.5055 
     38 O          27.6944   28.3498    3.7106 O.2       5 UNK        -0.5220 
     39 N          29.8452   27.6340    3.5592 N.am      6 UNK        -0.4450 
     40 CA         30.5564   28.8232    4.0452 C.3       6 UNK         0.0367 
     41 CB         30.2437   29.0869    5.5342 C.3       6 UNK        -0.1929 
     42 C          30.3676   30.0756    3.1638 C.2       6 UNK         0.5070 
     43 O          30.4113   31.1965    3.6741 O.2       6 UNK        -0.5237 
     44 N          30.1602   29.8722    1.8547 N.am      7 UNK        -0.4739 
     45 CA         29.9778   30.9540    0.8837 C.3       7 UNK         0.0276 
     46 CB         29.0639   30.4780   -0.2551 C.3       7 UNK        -0.1927 
     47 C          31.3146   31.4767    0.3359 C.2       7 UNK         0.5013 
     48 O          31.4597   32.6872    0.1625 O.2       7 UNK        -0.5193 
     49 N          32.2636   30.5660    0.0705 N.am      8 UNK        -0.4253 
     50 CA         33.5918   30.8958   -0.4609 C.3       8 UNK         0.0242 
     51 CB         34.2307   29.6370   -1.0672 C.3       8 UNK        -0.2000 
     52 C          34.5281   31.5089    0.5940 C.2       8 UNK         0.4948 
     53 O          35.3703   32.3383    0.2480 O.2       8 UNK        -0.5275 
     54 N          34.3653   31.0910    1.8526 N.am      9 UNK        -0.4246 
     55 CA         35.0896   31.5659    3.0240 C.3       9 UNK         0.0261 
     56 CB         36.4510   30.8566    3.1359 C.3       9 UNK        -0.1959 
     57 C          34.2114   31.2590    4.2370 C.2       9 UNK         0.5033 
     58 O          33.5166   30.2399    4.2281 O.2       9 UNK        -0.5390 
     59 N          34.2594   32.1222    5.2576 N.am      10 UNK        -0.4215 
     60 CA         33.4380   32.0414    6.4690 C.3       10 UNK         0.0240 
     61 CB         33.3892   33.4325    7.1296 C.3       10 UNK        -0.1982 
     62 C          33.9150   30.9413    7.4392 C.2       10 UNK         0.4970 
     63 O          34.3496   31.2458    8.5516 O.2       10 UNK        -0.4916 
     64 N          33.8345   29.6823    6.9956 N.am      11 UNK        -0.4279 
     65 CA         34.1874   28.4841    7.7722 C.3       11 UNK         0.1003 
     66 C          33.2032   28.1185    8.9241 C.2       11 UNK         0.5709 
     67 N          32.0315   28.7359    9.0241 N.am      11 UNK        -0.7358 
     68 O          33.5189   27.2681    9.7533 O.2       11 UNK        -0.4999 
     69 C69        34.4925   27.2743    6.8501 C.3       12 UNK        -0.0954 
     70 S70        33.0766   26.7391    5.8275 S.3       12 UNK        -0.2268 
     71 C71        33.8705   26.5773    4.1951 C.3       12 UNK         0.0203 
     72 H72        25.0205   28.4491   -1.6255 H         1 UNK         0.0888 
     73 H73        25.8486   29.1209   -0.2198 H         1 UNK         0.0888 
     74 H74        26.5997   29.2134   -1.8162 H         1 UNK         0.0888 
     75 H75        28.2684   27.7181   -2.0257 H         1 UNK         0.3017 
     76 H76        28.8163   25.6419   -0.2379 H         1 UNK         0.0873 
     77 H77        30.5525   24.9619   -1.9766 H         1 UNK         0.0745 
     78 H78        29.8867   26.1536   -3.0525 H         1 UNK         0.0745 
     79 H79        32.6487   25.3749   -1.2890 H         1 UNK         0.0705 
     80 H80        33.3701   26.8493   -0.7430 H         1 UNK         0.0705 
     81 H81        33.7013   27.2294    1.5701 H         1 UNK         0.1334 
     82 H82        32.1028   24.4772    4.4395 H         1 UNK         0.1417 
     83 H83        30.9118   24.2097    0.3343 H         1 UNK         0.1562 
     84 H84        30.7031   22.6922    3.7805 H         1 UNK         0.0748 
     85 H85        30.7297   22.2252    2.1009 H         1 UNK         0.0748 
     86 H86        29.4780   25.0783    4.2253 H         1 UNK         0.0940 
     87 H87        27.8279   24.6645    4.5048 H         1 UNK         0.0940 
     88 H88        28.5921   26.0667    1.9024 H         1 UNK         0.0703 
     89 H89        26.4330   26.0970    1.5244 H         1 UNK         0.3081 
     90 H90        23.5085   25.6530    3.4589 H         1 UNK         0.0719 
     91 H91        24.4023   27.8831    1.5543 H         1 UNK         0.0809 
     92 H92        22.7362   27.4504    1.9389 H         1 UNK         0.0809 
     93 H93        23.7824   28.1188    3.1813 H         1 UNK         0.0809 
     94 H94        24.0870   25.6128    0.6406 H         1 UNK         0.2990 
     95 H95        24.3039   22.0251    0.4775 H         1 UNK         0.0690 
     96 H96        22.3513   22.3790   -0.9909 H         1 UNK         0.0788 
     97 H97        22.1931   24.0494   -0.4534 H         1 UNK         0.0788 
     98 H98        21.8844   22.7254    0.6625 H         1 UNK         0.0788 
     99 H99        25.2591   24.4933   -0.6963 H         1 UNK         0.2993 
    100 H100       26.6741   22.7202   -3.4103 H         1 UNK         0.0949 
    101 H101       24.4414   24.7885   -3.8071 H         1 UNK         0.0767 
    102 H102       25.6986   24.3852   -4.9782 H         1 UNK         0.0767 
    103 H103       24.4924   23.1895   -4.5360 H         1 UNK         0.0767 
    104 H104       26.5665   25.5311   -2.8082 H         1 UNK         0.3013 
    105 H105       30.4455   26.8676    3.2829 H         1 UNK         0.3121 
    106 H106       31.6134   28.5727    3.9731 H         1 UNK         0.0774 
    107 H107       30.8990   29.8591    5.9363 H         1 UNK         0.0815 
    108 H108       29.2171   29.4243    5.6785 H         1 UNK         0.0815 
    109 H109       30.3915   28.1917    6.1378 H         1 UNK         0.0815 
    110 H110       30.1215   28.9245    1.5100 H         1 UNK         0.2987 
    111 H111       29.4764   31.7923    1.3737 H         1 UNK         0.0949 
    112 H112       28.8847   31.2807   -0.9718 H         1 UNK         0.0806 
    113 H113       29.4940   29.6421   -0.8047 H         1 UNK         0.0806 
    114 H114       28.0941   30.1671    0.1312 H         1 UNK         0.0806 
    115 H115       32.0529   29.5896    0.2148 H         1 UNK         0.3010 
    116 H116       33.4671   31.6299   -1.2602 H         1 UNK         0.0829 
    117 H117       33.5894   29.1893   -1.8268 H         1 UNK         0.0813 
    118 H118       35.1799   29.8781   -1.5477 H         1 UNK         0.0813 
    119 H119       34.4372   28.8849   -0.3058 H         1 UNK         0.0813 
    120 H120       33.6245   30.4373    2.0737 H         1 UNK         0.3038 
    121 H121       35.2345   32.6457    2.9468 H         1 UNK         0.0769 
    122 H122       36.3345   29.7746    3.2129 H         1 UNK         0.0811 
    123 H123       36.9954   31.1910    4.0198 H         1 UNK         0.0811 
    124 H124       37.0803   31.0643    2.2704 H         1 UNK         0.0811 
    125 H125       34.8936   32.9062    5.1994 H         1 UNK         0.3204 
    126 H126       32.4181   31.7866    6.1724 H         1 UNK         0.0748 
    127 H127       32.7584   33.4209    8.0197 H         1 UNK         0.0771 
    128 H128       34.3798   33.7714    7.4359 H         1 UNK         0.0771 
    129 H129       32.9734   34.1787    6.4522 H         1 UNK         0.0771 
    130 H130       33.5182   29.5310    6.0419 H         1 UNK         0.2980 
    131 H131       35.1254   28.7182    8.2791 H         1 UNK         0.0545 
    132 H132       31.4094   28.4927    9.7784 H         1 UNK         0.3459 
    133 H133       31.7645   29.4358    8.3529 H         1 UNK         0.3459 
    134 H134       34.8320   26.4195    7.4376 H         1 UNK         0.0616 
    135 H135       35.3291   27.5290    6.1977 H         1 UNK         0.0616 
    136 H136       34.7660   25.9629    4.2960 H         1 UNK         0.0634 
    137 H137       34.2021   27.5669    3.8764 H         1 UNK         0.0634 
@<TRIPOS>BOND
     1    1    2 1    
     2    1   72 1    
     3    1   73 1    
     4    1   74 1    
     5    2    3 2    
     6    2    4 am   BACKBONE|DICT|INTERRES
     7    4    5 1    
     8    4   75 1    
     9    5    6 1    
    10    5   35 1    
    11    5   76 1    
    12    6    7 1    
    13    6   77 1    
    14    6   78 1    
    15    7    8 1    
    16    8    9 1    
    17    8   79 1    
    18    8   80 1    
    19    9   10 ar   
    20    9   14 ar   
    21   10   11 ar   
    22   10   81 1    
    23   11   12 ar   
    24   11   71 1    
    25   12   13 ar   
    26   12   82 1    
    27   13   14 ar   
    28   13   15 1    
    29   14   83 1    
    30   15   16 1    
    31   15   84 1    
    32   15   85 1    
    33   16   17 1    
    34   17   18 1    
    35   17   86 1    
    36   17   87 1    
    37   18   19 1    
    38   18   37 1    
    39   18   88 1    
    40   19   20 am   BACKBONE|DICT|INTERRES
    41   19   89 1    
    42   20   21 2    
    43   20   22 1    
    44   22   23 1    
    45   22   24 1    
    46   22   90 1    
    47   23   91 1    
    48   23   92 1    
    49   23   93 1    
    50   24   25 am   BACKBONE|DICT|INTERRES
    51   24   94 1    
    52   25   26 2    
    53   25   27 1    
    54   27   28 1    
    55   27   29 1    
    56   27   95 1    
    57   28   96 1    
    58   28   97 1    
    59   28   98 1    
    60   29   30 am   BACKBONE|DICT|INTERRES
    61   29   99 1    
    62   30   31 2    
    63   30   32 1    
    64   32   33 1    
    65   32   34 1    
    66   32  100 1    
    67   33  101 1    
    68   33  102 1    
    69   33  103 1    
    70   34   35 am   BACKBONE|DICT|INTERRES
    71   34  104 1    
    72   35   36 2    
    73   37   38 2    
    74   37   39 am   BACKBONE|DICT|INTERRES
    75   39   40 1    
    76   39  105 1    
    77   40   41 1    
    78   40   42 1    
    79   40  106 1    
    80   41  107 1    
    81   41  108 1    
    82   41  109 1    
    83   42   43 2    
    84   42   44 am   BACKBONE|DICT|INTERRES
    85   44   45 1    
    86   44  110 1    
    87   45   46 1    
    88   45   47 1    
    89   45  111 1    
    90   46  112 1    
    91   46  113 1    
    92   46  114 1    
    93   47   48 2    
    94   47   49 am   BACKBONE|DICT|INTERRES
    95   49   50 1    
    96   49  115 1    
    97   50   51 1    
    98   50   52 1    
    99   50  116 1    
   100   51  117 1    
   101   51  118 1    
   102   51  119 1    
   103   52   53 2    
   104   52   54 am   BACKBONE|DICT|INTERRES
   105   54   55 1    
   106   54  120 1    
   107   55   56 1    
   108   55   57 1    
   109   55  121 1    
   110   56  122 1    
   111   56  123 1    
   112   56  124 1    
   113   57   58 2    
   114   57   59 am   BACKBONE|DICT|INTERRES
   115   59   60 1    
   116   59  125 1    
   117   60   61 1    
   118   60   62 1    
   119   60  126 1    
   120   61  127 1    
   121   61  128 1    
   122   61  129 1    
   123   62   63 2    
   124   62   64 am   BACKBONE|DICT|INTERRES
   125   64   65 1    
   126   64  130 1    
   127   65   66 1    
   128   65   69 1    
   129   65  131 1    
   130   66   67 am   BACKBONE|DICT|INTERRES
   131   66   68 2    
   132   67  132 1    
   133   67  133 1    
   134   69   70 1    
   135   69  134 1    
   136   69  135 1    
   137   70   71 1    
   138   71  136 1    
   139   71  137 1    
@<TRIPOS>SUBSTRUCTURE
     1 UNK         1 GROUP             0       ****    0 ROOT    
