@<TRIPOS>MOLECULE
3R136
137   139    1
SMALL
USER_CHARGES


@<TRIPOS>ATOM
      1 CA         30.6738   18.1873    2.6274 C.3       0 UNK        -0.1979 
      2 C          29.6182   18.2896    1.5365 C.2       0 UNK         0.4864 
      3 O          28.8843   17.3288    1.3019 O.2       0 UNK        -0.5359 
      4 N          29.5332   19.4490    0.8706 N.am      1 UNK        -0.4318 
      5 CA         28.5793   19.7303   -0.2106 C.3       1 UNK         0.0824 
      6 C6         29.0847   20.8698   -1.1330 C.3       12 UNK        -0.0944 
      7 S7         29.3382   22.4673   -0.2796 S.3       12 UNK        -0.2672 
      8 C8         31.0920   22.7862   -0.6244 C.3       12 UNK         0.0333 
      9 C9         31.5183   24.1656   -0.1424 C.ar      12 UNK        -0.0807 
     10 C10        31.9178   24.3561    1.1846 C.ar      12 UNK        -0.0894 
     11 C11        32.3871   25.6026    1.6117 C.ar      12 UNK        -0.0804 
     12 C12        32.4509   26.6605    0.7014 C.ar      12 UNK        -0.0824 
     13 C13        32.0276   26.4925   -0.6192 C.ar      12 UNK        -0.0762 
     14 C14        31.5580   25.2425   -1.0351 C.ar      12 UNK        -0.0782 
     15 C15        32.1271   27.6466   -1.6074 C.3       12 UNK         0.0230 
     16 S16        30.5483   28.5314   -1.8072 S.3       12 UNK        -0.2608 
     17 C17        30.3983   29.4353   -0.2271 C.3       12 UNK        -0.0989 
     18 CA         29.0927   29.0800    0.5246 C.3       5 UNK         0.0716 
     19 N          29.0143   27.6518    0.8401 N.am      5 UNK        -0.4135 
     20 C          27.9037   27.0140    1.2257 C.2       4 UNK         0.5031 
     21 O          26.8076   27.5609    1.3815 O.2       4 UNK        -0.5229 
     22 CA         28.0567   25.5076    1.4880 C.3       4 UNK         0.0329 
     23 CB         28.5483   25.2457    2.9195 C.3       4 UNK        -0.2001 
     24 N          26.8096   24.7717    1.2808 N.am      4 UNK        -0.4303 
     25 C          26.1970   24.5853    0.1050 C.2       3 UNK         0.5044 
     26 O          26.6236   25.0171   -0.9680 O.2       3 UNK        -0.5152 
     27 CA         24.9091   23.7366    0.1432 C.3       3 UNK         0.0319 
     28 CB         24.2533   23.5864   -1.2422 C.3       3 UNK        -0.2001 
     29 N          25.1754   22.4014    0.6829 N.am      3 UNK        -0.4354 
     30 C          25.3022   22.0868    1.9775 C.2       2 UNK         0.4964 
     31 O          25.1292   22.8948    2.8907 O.2       2 UNK        -0.5047 
     32 CA         25.7542   20.6549    2.3144 C.3       2 UNK         0.0288 
     33 CB         24.6065   19.6389    2.1471 C.3       2 UNK        -0.2113 
     34 N          26.9716   20.2462    1.5963 N.am      2 UNK        -0.4145 
     35 C          27.1406   20.0049    0.2855 C.2       1 UNK         0.5006 
     36 O          26.2226   20.0327   -0.5372 O.2       1 UNK        -0.5103 
     37 C          28.9171   29.9584    1.7820 C.2       5 UNK         0.5055 
     38 O          29.2007   29.5172    2.8991 O.2       5 UNK        -0.5220 
     39 N          28.4542   31.1956    1.5576 N.am      6 UNK        -0.4450 
     40 CA         28.1882   32.2095    2.5806 C.3       6 UNK         0.0367 
     41 CB         27.1410   33.1987    2.0279 C.3       6 UNK        -0.1929 
     42 C          29.4762   32.9038    3.0725 C.2       6 UNK         0.5070 
     43 O          30.5584   32.3161    3.0198 O.2       6 UNK        -0.5237 
     44 N          29.3470   34.1531    3.5431 N.am      7 UNK        -0.4739 
     45 CA         30.3832   34.9775    4.1862 C.3       7 UNK         0.0276 
     46 CB         29.7688   36.3350    4.5656 C.3       7 UNK        -0.1927 
     47 C          31.6910   35.1867    3.3956 C.2       7 UNK         0.5013 
     48 O          32.6971   35.5562    4.0014 O.2       7 UNK        -0.5193 
     49 N          31.6732   34.9261    2.0806 N.am      8 UNK        -0.4253 
     50 CA         32.8624   34.8541    1.2261 C.3       8 UNK         0.0242 
     51 CB         32.4261   34.7114   -0.2410 C.3       8 UNK        -0.2000 
     52 C          33.8181   33.7089    1.6186 C.2       8 UNK         0.4948 
     53 O          35.0312   33.8659    1.4746 O.2       8 UNK        -0.5275 
     54 N          33.2585   32.5979    2.1178 N.am      9 UNK        -0.4246 
     55 CA         33.9924   31.4738    2.7022 C.3       9 UNK         0.0261 
     56 CB         33.4544   30.1562    2.1226 C.3       9 UNK        -0.1959 
     57 C          33.8579   31.4684    4.2326 C.2       9 UNK         0.5033 
     58 O          34.8323   31.1602    4.9191 O.2       9 UNK        -0.5390 
     59 N          32.6552   31.7993    4.7309 N.am      10 UNK        -0.4215 
     60 CA         32.2428   31.8540    6.1395 C.3       10 UNK         0.0240 
     61 CB         33.0198   32.9490    6.9010 C.3       10 UNK        -0.1982 
     62 C          32.2740   30.4874    6.8554 C.2       10 UNK         0.4970 
     63 O          32.3703   30.4459    8.0832 O.2       10 UNK        -0.4916 
     64 N          32.1756   29.3970    6.0848 N.am      11 UNK        -0.4279 
     65 CA         32.1508   28.0121    6.5769 C.3       11 UNK         0.1003 
     66 C          30.7694   27.5353    7.1138 C.2       11 UNK         0.5709 
     67 N          29.6853   28.2766    6.9163 N.am      11 UNK        -0.7358 
     68 O          30.6854   26.4815    7.7405 O.2       11 UNK        -0.4999 
     69 C69        32.7538   27.0338    5.5353 C.3       12 UNK        -0.0954 
     70 S70        31.9137   27.0684    3.9174 S.3       12 UNK        -0.2268 
     71 C71        32.8748   25.7991    3.0399 C.3       12 UNK         0.0203 
     72 H72        30.2031   17.9741    3.5867 H         1 UNK         0.0888 
     73 H73        31.3687   17.3789    2.4016 H         1 UNK         0.0888 
     74 H74        31.2475   19.1085    2.7283 H         1 UNK         0.0888 
     75 H75        30.1580   20.2081    1.1034 H         1 UNK         0.3017 
     76 H76        28.5100   18.8311   -0.8271 H         1 UNK         0.0873 
     77 H77        30.0177   20.5591   -1.6056 H         1 UNK         0.0745 
     78 H78        28.3875   21.0325   -1.9574 H         1 UNK         0.0745 
     79 H79        31.2705   22.6947   -1.6971 H         1 UNK         0.0705 
     80 H80        31.7014   22.0188   -0.1446 H         1 UNK         0.0705 
     81 H81        31.8852   23.5255    1.8765 H         1 UNK         0.1334 
     82 H82        32.8408   27.6140    1.0262 H         1 UNK         0.1417 
     83 H83        31.2464   25.1024   -2.0616 H         1 UNK         0.1562 
     84 H84        32.4362   27.2632   -2.5810 H         1 UNK         0.0748 
     85 H85        32.9035   28.3507   -1.3033 H         1 UNK         0.0748 
     86 H86        30.4330   30.5017   -0.4584 H         1 UNK         0.0940 
     87 H87        31.2658   29.2406    0.4012 H         1 UNK         0.0940 
     88 H88        28.2548   29.3010   -0.1408 H         1 UNK         0.0703 
     89 H89        29.8767   27.1326    0.7584 H         1 UNK         0.3081 
     90 H90        28.7974   25.1177    0.7881 H         1 UNK         0.0719 
     91 H91        29.4950   25.7515    3.1029 H         1 UNK         0.0809 
     92 H92        27.8370   25.6060    3.6637 H         1 UNK         0.0809 
     93 H93        28.7139   24.1823    3.0939 H         1 UNK         0.0809 
     94 H94        26.3675   24.3782    2.1032 H         1 UNK         0.2990 
     95 H95        24.1991   24.2501    0.7950 H         1 UNK         0.0690 
     96 H96        23.3217   23.0237   -1.1806 H         1 UNK         0.0788 
     97 H97        24.9100   23.0717   -1.9450 H         1 UNK         0.0788 
     98 H98        24.0146   24.5612   -1.6697 H         1 UNK         0.0788 
     99 H99        25.3932   21.6708    0.0105 H         1 UNK         0.2993 
    100 H100       26.0273   20.6585    3.3712 H         1 UNK         0.0949 
    101 H101       23.7612   19.9033    2.7837 H         1 UNK         0.0767 
    102 H102       24.2358   19.5973    1.1227 H         1 UNK         0.0767 
    103 H103       24.9235   18.6349    2.4295 H         1 UNK         0.0767 
    104 H104       27.8077   20.2223    2.1627 H         1 UNK         0.3013 
    105 H105       28.2814   31.4768    0.6034 H         1 UNK         0.3121 
    106 H106       27.7525   31.7095    3.4483 H         1 UNK         0.0774 
    107 H107       27.5456   33.8102    1.2201 H         1 UNK         0.0815 
    108 H108       26.2692   32.6719    1.6389 H         1 UNK         0.0815 
    109 H109       26.7722   33.8714    2.8031 H         1 UNK         0.0815 
    110 H110       28.4226   34.5597    3.5212 H         1 UNK         0.2987 
    111 H111       30.6643   34.4665    5.1090 H         1 UNK         0.0949 
    112 H112       28.9201   36.2144    5.2391 H         1 UNK         0.0806 
    113 H113       30.4961   36.9661    5.0788 H         1 UNK         0.0806 
    114 H114       29.4267   36.8819    3.6861 H         1 UNK         0.0806 
    115 H115       30.7961   34.6398    1.6714 H         1 UNK         0.3010 
    116 H116       33.4099   35.7930    1.3340 H         1 UNK         0.0829 
    117 H117       31.8553   33.7967   -0.4070 H         1 UNK         0.0813 
    118 H118       33.2926   34.6791   -0.9032 H         1 UNK         0.0813 
    119 H119       31.8111   35.5545   -0.5566 H         1 UNK         0.0813 
    120 H120       32.2475   32.5752    2.2214 H         1 UNK         0.3038 
    121 H121       35.0547   31.5444    2.4591 H         1 UNK         0.0769 
    122 H122       33.5704   30.1266    1.0392 H         1 UNK         0.0811 
    123 H123       32.3981   30.0140    2.3553 H         1 UNK         0.0811 
    124 H124       33.9961   29.3022    2.5320 H         1 UNK         0.0811 
    125 H125       31.9040   31.9856    4.0651 H         1 UNK         0.3204 
    126 H126       31.1932   32.1509    6.1259 H         1 UNK         0.0748 
    127 H127       34.0706   32.6862    7.0262 H         1 UNK         0.0771 
    128 H128       32.9741   33.9045    6.3783 H         1 UNK         0.0771 
    129 H129       32.6035   33.1060    7.8968 H         1 UNK         0.0771 
    130 H130       32.0724   29.5073    5.0871 H         1 UNK         0.2980 
    131 H131       32.8127   27.9704    7.4440 H         1 UNK         0.0545 
    132 H132       29.7398   29.1279    6.3816 H         1 UNK         0.3459 
    133 H133       28.7990   27.9596    7.2754 H         1 UNK         0.3459 
    134 H134       32.7472   26.0112    5.9174 H         1 UNK         0.0616 
    135 H135       33.8035   27.2834    5.3726 H         1 UNK         0.0616 
    136 H136       33.9255   26.0921    3.0212 H         1 UNK         0.0634 
    137 H137       32.8196   24.8639    3.5993 H         1 UNK         0.0634 
@<TRIPOS>BOND
     1    1    2 1    
     2    1   72 1    
     3    1   73 1    
     4    1   74 1    
     5    2    3 2    
     6    2    4 am   BACKBONE|DICT|INTERRES
     7    4    5 1    
     8    4   75 1    
     9    5    6 1    
    10    5   35 1    
    11    5   76 1    
    12    6    7 1    
    13    6   77 1    
    14    6   78 1    
    15    7    8 1    
    16    8    9 1    
    17    8   79 1    
    18    8   80 1    
    19    9   10 ar   
    20    9   14 ar   
    21   10   11 ar   
    22   10   81 1    
    23   11   12 ar   
    24   11   71 1    
    25   12   13 ar   
    26   12   82 1    
    27   13   14 ar   
    28   13   15 1    
    29   14   83 1    
    30   15   16 1    
    31   15   84 1    
    32   15   85 1    
    33   16   17 1    
    34   17   18 1    
    35   17   86 1    
    36   17   87 1    
    37   18   19 1    
    38   18   37 1    
    39   18   88 1    
    40   19   20 am   BACKBONE|DICT|INTERRES
    41   19   89 1    
    42   20   21 2    
    43   20   22 1    
    44   22   23 1    
    45   22   24 1    
    46   22   90 1    
    47   23   91 1    
    48   23   92 1    
    49   23   93 1    
    50   24   25 am   BACKBONE|DICT|INTERRES
    51   24   94 1    
    52   25   26 2    
    53   25   27 1    
    54   27   28 1    
    55   27   29 1    
    56   27   95 1    
    57   28   96 1    
    58   28   97 1    
    59   28   98 1    
    60   29   30 am   BACKBONE|DICT|INTERRES
    61   29   99 1    
    62   30   31 2    
    63   30   32 1    
    64   32   33 1    
    65   32   34 1    
    66   32  100 1    
    67   33  101 1    
    68   33  102 1    
    69   33  103 1    
    70   34   35 am   BACKBONE|DICT|INTERRES
    71   34  104 1    
    72   35   36 2    
    73   37   38 2    
    74   37   39 am   BACKBONE|DICT|INTERRES
    75   39   40 1    
    76   39  105 1    
    77   40   41 1    
    78   40   42 1    
    79   40  106 1    
    80   41  107 1    
    81   41  108 1    
    82   41  109 1    
    83   42   43 2    
    84   42   44 am   BACKBONE|DICT|INTERRES
    85   44   45 1    
    86   44  110 1    
    87   45   46 1    
    88   45   47 1    
    89   45  111 1    
    90   46  112 1    
    91   46  113 1    
    92   46  114 1    
    93   47   48 2    
    94   47   49 am   BACKBONE|DICT|INTERRES
    95   49   50 1    
    96   49  115 1    
    97   50   51 1    
    98   50   52 1    
    99   50  116 1    
   100   51  117 1    
   101   51  118 1    
   102   51  119 1    
   103   52   53 2    
   104   52   54 am   BACKBONE|DICT|INTERRES
   105   54   55 1    
   106   54  120 1    
   107   55   56 1    
   108   55   57 1    
   109   55  121 1    
   110   56  122 1    
   111   56  123 1    
   112   56  124 1    
   113   57   58 2    
   114   57   59 am   BACKBONE|DICT|INTERRES
   115   59   60 1    
   116   59  125 1    
   117   60   61 1    
   118   60   62 1    
   119   60  126 1    
   120   61  127 1    
   121   61  128 1    
   122   61  129 1    
   123   62   63 2    
   124   62   64 am   BACKBONE|DICT|INTERRES
   125   64   65 1    
   126   64  130 1    
   127   65   66 1    
   128   65   69 1    
   129   65  131 1    
   130   66   67 am   BACKBONE|DICT|INTERRES
   131   66   68 2    
   132   67  132 1    
   133   67  133 1    
   134   69   70 1    
   135   69  134 1    
   136   69  135 1    
   137   70   71 1    
   138   71  136 1    
   139   71  137 1    
@<TRIPOS>SUBSTRUCTURE
     1 UNK         1 GROUP             0       ****    0 ROOT    
