@<TRIPOS>MOLECULE
3R136
137   139    1
SMALL
USER_CHARGES


@<TRIPOS>ATOM
      1 CA         33.1595   26.5539   -4.2419 C.3       0 UNK        -0.1979 
      2 C          32.1061   26.7030   -3.1547 C.2       0 UNK         0.4864 
      3 O          32.0086   27.7647   -2.5366 O.2       0 UNK        -0.5359 
      4 N          31.3112   25.6510   -2.9146 N.am      1 UNK        -0.4318 
      5 CA         30.2288   25.6252   -1.9266 C.3       1 UNK         0.0824 
      6 C6         29.9378   24.1767   -1.4337 C.3       12 UNK        -0.0944 
      7 S7         29.5650   24.1170    0.3526 S.3       12 UNK        -0.2672 
      8 C8         31.0977   23.3529    0.9766 C.3       12 UNK         0.0333 
      9 C9         31.1510   23.3425    2.4969 C.ar      12 UNK        -0.0807 
     10 C10        32.0463   24.1723    3.1797 C.ar      12 UNK        -0.0894 
     11 C11        32.0988   24.1632    4.5767 C.ar      12 UNK        -0.0804 
     12 C12        31.2446   23.3217    5.2934 C.ar      12 UNK        -0.0824 
     13 C13        30.3403   22.4939    4.6225 C.ar      12 UNK        -0.0762 
     14 C14        30.3121   22.4932    3.2238 C.ar      12 UNK        -0.0782 
     15 C15        29.3642   21.6341    5.4098 C.3       12 UNK         0.0230 
     16 S16        27.6386   22.1330    5.1087 S.3       12 UNK        -0.2608 
     17 C17        27.6096   23.8644    5.7060 C.3       12 UNK        -0.0989 
     18 CA         27.9689   24.9372    4.6297 C.3       5 UNK         0.0716 
     19 N          27.3466   24.6965    3.3239 N.am      5 UNK        -0.4135 
     20 C          26.0370   24.6981    3.0474 C.2       4 UNK         0.5031 
     21 O          25.1450   24.9536    3.8591 O.2       4 UNK        -0.5229 
     22 CA         25.6730   24.3742    1.5901 C.3       4 UNK         0.0329 
     23 CB         24.5475   23.3276    1.5185 C.3       4 UNK        -0.2001 
     24 N          25.2858   25.5528    0.8112 N.am      4 UNK        -0.4303 
     25 C          25.9800   26.6914    0.6850 C.2       3 UNK         0.5044 
     26 O          27.0079   26.9746    1.3112 O.2       3 UNK        -0.5152 
     27 CA         25.4563   27.6823   -0.3545 C.3       3 UNK         0.0319 
     28 CB         24.7217   28.8679    0.2930 C.3       3 UNK        -0.2001 
     29 N          26.6241   28.1282   -1.1008 N.am      3 UNK        -0.4354 
     30 C          26.6412   28.4754   -2.3910 C.2       2 UNK         0.4964 
     31 O          25.6291   28.6619   -3.0672 O.2       2 UNK        -0.5047 
     32 CA         28.0263   28.5973   -3.0533 C.3       2 UNK         0.0288 
     33 CB         28.5347   30.0464   -2.9950 C.3       2 UNK        -0.2113 
     34 N          29.0471   27.7015   -2.4916 N.am      2 UNK        -0.4145 
     35 C          28.9907   26.3600   -2.4882 C.2       1 UNK         0.5006 
     36 O          28.0466   25.7188   -2.9539 O.2       1 UNK        -0.5103 
     37 C          27.7538   26.3804    5.1461 C.2       5 UNK         0.5055 
     38 O          27.7991   26.5960    6.3594 O.2       5 UNK        -0.5220 
     39 N          27.5112   27.3382    4.2377 N.am      6 UNK        -0.4450 
     40 CA         27.1711   28.7214    4.5662 C.3       6 UNK         0.0367 
     41 CB         25.6670   28.9520    4.3213 C.3       6 UNK        -0.1929 
     42 C          28.0594   29.6916    3.7809 C.2       6 UNK         0.5070 
     43 O          29.0338   30.2029    4.3311 O.2       6 UNK        -0.5237 
     44 N          27.7228   29.9318    2.5066 N.am      7 UNK        -0.4739 
     45 CA         28.3719   30.9308    1.6458 C.3       7 UNK         0.0276 
     46 CB         27.3782   31.4106    0.5739 C.3       7 UNK        -0.1927 
     47 C          29.6966   30.4578    1.0183 C.2       7 UNK         0.5013 
     48 O          30.2478   31.1614    0.1710 O.2       7 UNK        -0.5193 
     49 N          30.2039   29.2955    1.4467 N.am      8 UNK        -0.4253 
     50 CA         31.4773   28.6915    1.0490 C.3       8 UNK         0.0242 
     51 CB         31.4547   27.2190    1.4953 C.3       8 UNK        -0.2000 
     52 C          32.6875   29.4528    1.6301 C.2       8 UNK         0.4948 
     53 O          33.4376   28.8948    2.4327 O.2       8 UNK        -0.5275 
     54 N          32.8151   30.7403    1.2734 N.am      9 UNK        -0.4246 
     55 CA         33.7944   31.7175    1.7766 C.3       9 UNK         0.0261 
     56 CB         35.2060   31.3847    1.2490 C.3       9 UNK        -0.1959 
     57 C          33.7580   31.8708    3.3132 C.2       9 UNK         0.5033 
     58 O          34.8030   32.0588    3.9407 O.2       9 UNK        -0.5390 
     59 N          32.5566   31.7130    3.8947 N.am      10 UNK        -0.4215 
     60 CA         32.2600   31.6222    5.3317 C.3       10 UNK         0.0240 
     61 CB         32.4772   32.9900    6.0135 C.3       10 UNK        -0.1982 
     62 C          33.0075   30.4790    6.0563 C.2       10 UNK         0.4970 
     63 O          33.1577   30.5402    7.2779 O.2       10 UNK        -0.4916 
     64 N          33.4816   29.4776    5.2986 N.am      11 UNK        -0.4279 
     65 CA         34.3830   28.4019    5.7368 C.3       11 UNK         0.1003 
     66 C          35.7802   28.9009    6.2208 C.2       11 UNK         0.5709 
     67 N          36.2298   30.0886    5.8270 N.am      11 UNK        -0.7358 
     68 O          36.4871   28.1936    6.9355 O.2       11 UNK        -0.4999 
     69 C69        33.7025   27.3929    6.7053 C.3       12 UNK        -0.0954 
     70 S70        32.2723   26.5642    5.9317 S.3       12 UNK        -0.2268 
     71 C71        33.0802   25.0563    5.3165 C.3       12 UNK         0.0203 
     72 H72        33.1369   25.5650   -4.6994 H         1 UNK         0.0888 
     73 H73        32.9970   27.2943   -5.0246 H         1 UNK         0.0888 
     74 H74        34.1533   26.7118   -3.8240 H         1 UNK         0.0888 
     75 H75        31.4120   24.8172   -3.4763 H         1 UNK         0.3017 
     76 H76        30.5759   26.2026   -1.0691 H         1 UNK         0.0873 
     77 H77        30.8025   23.5364   -1.6157 H         1 UNK         0.0745 
     78 H78        29.1248   23.6966   -1.9806 H         1 UNK         0.0745 
     79 H79        31.9557   23.8918    0.5711 H         1 UNK         0.0705 
     80 H80        31.1692   22.3299    0.6040 H         1 UNK         0.0705 
     81 H81        32.7070   24.8244    2.6259 H         1 UNK         0.1334 
     82 H82        31.2728   23.3290    6.3747 H         1 UNK         0.1417 
     83 H83        29.6112   21.8556    2.7017 H         1 UNK         0.1562 
     84 H84        29.5694   21.6816    6.4805 H         1 UNK         0.0748 
     85 H85        29.4890   20.5906    5.1173 H         1 UNK         0.0748 
     86 H86        28.2784   23.9515    6.5643 H         1 UNK         0.0940 
     87 H87        26.6056   24.0495    6.0927 H         1 UNK         0.0940 
     88 H88        29.0403   24.8777    4.4448 H         1 UNK         0.0703 
     89 H89        27.9924   24.5143    2.5677 H         1 UNK         0.3081 
     90 H90        26.5503   23.9436    1.1031 H         1 UNK         0.0719 
     91 H91        23.6102   23.7136    1.9215 H         1 UNK         0.0809 
     92 H92        24.3661   23.0062    0.4928 H         1 UNK         0.0809 
     93 H93        24.8068   22.4377    2.0941 H         1 UNK         0.0809 
     94 H94        24.4424   25.4535    0.2652 H         1 UNK         0.2990 
     95 H95        24.7744   27.1636   -1.0323 H         1 UNK         0.0690 
     96 H96        24.3966   29.5888   -0.4574 H         1 UNK         0.0788 
     97 H97        25.3460   29.3945    1.0116 H         1 UNK         0.0788 
     98 H98        23.8314   28.5286    0.8238 H         1 UNK         0.0788 
     99 H99        27.5021   27.9633   -0.6253 H         1 UNK         0.2993 
    100 H100       27.8998   28.3243   -4.1032 H         1 UNK         0.0949 
    101 H101       29.4511   30.1679   -3.5732 H         1 UNK         0.0767 
    102 H102       27.7983   30.7378   -3.4072 H         1 UNK         0.0767 
    103 H103       28.7422   30.3612   -1.9729 H         1 UNK         0.0767 
    104 H104       29.9142   28.1308   -2.1885 H         1 UNK         0.3013 
    105 H105       27.4880   27.0882    3.2522 H         1 UNK         0.3121 
    106 H106       27.3653   28.9253    5.6214 H         1 UNK         0.0774 
    107 H107       25.4040   30.0049    4.4328 H         1 UNK         0.0815 
    108 H108       25.3560   28.6330    3.3269 H         1 UNK         0.0815 
    109 H109       25.0690   28.3927    5.0411 H         1 UNK         0.0815 
    110 H110       26.9545   29.4145    2.1048 H         1 UNK         0.2987 
    111 H111       28.6229   31.7968    2.2627 H         1 UNK         0.0949 
    112 H112       27.7982   32.2294   -0.0120 H         1 UNK         0.0806 
    113 H113       27.1190   30.6176   -0.1244 H         1 UNK         0.0806 
    114 H114       26.4562   31.7808    1.0225 H         1 UNK         0.0806 
    115 H115       29.6902   28.8150    2.1706 H         1 UNK         0.3010 
    116 H116       31.5526   28.7239   -0.0395 H         1 UNK         0.0829 
    117 H117       30.5458   26.7180    1.1683 H         1 UNK         0.0813 
    118 H118       32.3027   26.6747    1.0787 H         1 UNK         0.0813 
    119 H119       31.5007   27.1227    2.5815 H         1 UNK         0.0813 
    120 H120       32.0972   31.1077    0.6517 H         1 UNK         0.3038 
    121 H121       33.5045   32.6862    1.3670 H         1 UNK         0.0769 
    122 H122       35.9181   32.1676    1.5127 H         1 UNK         0.0811 
    123 H123       35.2128   31.2950    0.1628 H         1 UNK         0.0811 
    124 H124       35.5822   30.4495    1.6655 H         1 UNK         0.0811 
    125 H125       31.7689   31.5440    3.2854 H         1 UNK         0.3204 
    126 H126       31.1997   31.3797    5.4096 H         1 UNK         0.0748 
    127 H127       32.1232   32.9762    7.0451 H         1 UNK         0.0771 
    128 H128       33.5315   33.2676    6.0354 H         1 UNK         0.0771 
    129 H129       31.9325   33.7810    5.4980 H         1 UNK         0.0771 
    130 H130       33.3222   29.4963    4.2963 H         1 UNK         0.2980 
    131 H131       34.6165   27.8501    4.8258 H         1 UNK         0.0545 
    132 H132       35.6739   30.6843    5.2229 H         1 UNK         0.3459 
    133 H133       37.1377   30.3967    6.1357 H         1 UNK         0.3459 
    134 H134       34.4079   26.6273    7.0324 H         1 UNK         0.0616 
    135 H135       33.3657   27.8942    7.6133 H         1 UNK         0.0616 
    136 H136       33.9089   25.3331    4.6629 H         1 UNK         0.0634 
    137 H137       33.5146   24.5088    6.1544 H         1 UNK         0.0634 
@<TRIPOS>BOND
     1    1    2 1    
     2    1   72 1    
     3    1   73 1    
     4    1   74 1    
     5    2    3 2    
     6    2    4 am   BACKBONE|DICT|INTERRES
     7    4    5 1    
     8    4   75 1    
     9    5    6 1    
    10    5   35 1    
    11    5   76 1    
    12    6    7 1    
    13    6   77 1    
    14    6   78 1    
    15    7    8 1    
    16    8    9 1    
    17    8   79 1    
    18    8   80 1    
    19    9   10 ar   
    20    9   14 ar   
    21   10   11 ar   
    22   10   81 1    
    23   11   12 ar   
    24   11   71 1    
    25   12   13 ar   
    26   12   82 1    
    27   13   14 ar   
    28   13   15 1    
    29   14   83 1    
    30   15   16 1    
    31   15   84 1    
    32   15   85 1    
    33   16   17 1    
    34   17   18 1    
    35   17   86 1    
    36   17   87 1    
    37   18   19 1    
    38   18   37 1    
    39   18   88 1    
    40   19   20 am   BACKBONE|DICT|INTERRES
    41   19   89 1    
    42   20   21 2    
    43   20   22 1    
    44   22   23 1    
    45   22   24 1    
    46   22   90 1    
    47   23   91 1    
    48   23   92 1    
    49   23   93 1    
    50   24   25 am   BACKBONE|DICT|INTERRES
    51   24   94 1    
    52   25   26 2    
    53   25   27 1    
    54   27   28 1    
    55   27   29 1    
    56   27   95 1    
    57   28   96 1    
    58   28   97 1    
    59   28   98 1    
    60   29   30 am   BACKBONE|DICT|INTERRES
    61   29   99 1    
    62   30   31 2    
    63   30   32 1    
    64   32   33 1    
    65   32   34 1    
    66   32  100 1    
    67   33  101 1    
    68   33  102 1    
    69   33  103 1    
    70   34   35 am   BACKBONE|DICT|INTERRES
    71   34  104 1    
    72   35   36 2    
    73   37   38 2    
    74   37   39 am   BACKBONE|DICT|INTERRES
    75   39   40 1    
    76   39  105 1    
    77   40   41 1    
    78   40   42 1    
    79   40  106 1    
    80   41  107 1    
    81   41  108 1    
    82   41  109 1    
    83   42   43 2    
    84   42   44 am   BACKBONE|DICT|INTERRES
    85   44   45 1    
    86   44  110 1    
    87   45   46 1    
    88   45   47 1    
    89   45  111 1    
    90   46  112 1    
    91   46  113 1    
    92   46  114 1    
    93   47   48 2    
    94   47   49 am   BACKBONE|DICT|INTERRES
    95   49   50 1    
    96   49  115 1    
    97   50   51 1    
    98   50   52 1    
    99   50  116 1    
   100   51  117 1    
   101   51  118 1    
   102   51  119 1    
   103   52   53 2    
   104   52   54 am   BACKBONE|DICT|INTERRES
   105   54   55 1    
   106   54  120 1    
   107   55   56 1    
   108   55   57 1    
   109   55  121 1    
   110   56  122 1    
   111   56  123 1    
   112   56  124 1    
   113   57   58 2    
   114   57   59 am   BACKBONE|DICT|INTERRES
   115   59   60 1    
   116   59  125 1    
   117   60   61 1    
   118   60   62 1    
   119   60  126 1    
   120   61  127 1    
   121   61  128 1    
   122   61  129 1    
   123   62   63 2    
   124   62   64 am   BACKBONE|DICT|INTERRES
   125   64   65 1    
   126   64  130 1    
   127   65   66 1    
   128   65   69 1    
   129   65  131 1    
   130   66   67 am   BACKBONE|DICT|INTERRES
   131   66   68 2    
   132   67  132 1    
   133   67  133 1    
   134   69   70 1    
   135   69  134 1    
   136   69  135 1    
   137   70   71 1    
   138   71  136 1    
   139   71  137 1    
@<TRIPOS>SUBSTRUCTURE
     1 UNK         1 GROUP             0       ****    0 ROOT    
