@<TRIPOS>MOLECULE
3R136
137   139    1
SMALL
USER_CHARGES


@<TRIPOS>ATOM
      1 CA         26.4870   22.8580   -1.8106 C.3       0 UNK        -0.1979 
      2 C          27.3914   23.3790   -0.7054 C.2       0 UNK         0.4864 
      3 O          27.0079   24.3202   -0.0042 O.2       0 UNK        -0.5359 
      4 N          28.5825   22.7848   -0.5493 N.am      1 UNK        -0.4318 
      5 CA         29.6050   23.1320    0.4455 C.3       1 UNK         0.0824 
      6 C6         30.8512   22.2176    0.3243 C.3       12 UNK        -0.0944 
      7 S7         31.7888   22.5536   -1.2061 S.3       12 UNK        -0.2672 
      8 C8         33.1774   23.5631   -0.5848 C.3       12 UNK         0.0333 
      9 C9         32.6856   24.8185    0.1211 C.ar      12 UNK        -0.0807 
     10 C10        32.6704   24.8801    1.5180 C.ar      12 UNK        -0.0894 
     11 C11        32.1383   25.9930    2.1734 C.ar      12 UNK        -0.0804 
     12 C12        31.6183   27.0476    1.4193 C.ar      12 UNK        -0.0824 
     13 C13        31.6796   27.0255    0.0224 C.ar      12 UNK        -0.0762 
     14 C14        32.2180   25.9066   -0.6216 C.ar      12 UNK        -0.0782 
     15 C15        31.1748   28.2226   -0.7761 C.3       12 UNK         0.0230 
     16 S16        30.0124   27.7814   -2.1084 S.3       12 UNK        -0.2608 
     17 C17        28.6890   26.9425   -1.1787 C.3       12 UNK        -0.0989 
     18 CA         27.4318   27.8197   -0.9772 C.3       5 UNK         0.0716 
     19 N          26.2963   26.9883   -0.5855 N.am      5 UNK        -0.4135 
     20 C          25.0095   27.3607   -0.6112 C.2       4 UNK         0.5031 
     21 O          24.6283   28.4589   -1.0186 O.2       4 UNK        -0.5229 
     22 CA         23.9627   26.3505   -0.1147 C.3       4 UNK         0.0329 
     23 CB         23.2930   25.6386   -1.3027 C.3       4 UNK        -0.2001 
     24 N          24.5308   25.3468    0.7901 N.am      4 UNK        -0.4303 
     25 C          23.9740   24.9425    1.9385 C.2       3 UNK         0.5044 
     26 O          22.9160   25.3869    2.3858 O.2       3 UNK        -0.5152 
     27 CA         24.7203   23.8566    2.7254 C.3       3 UNK         0.0319 
     28 CB         24.4977   22.4751    2.0868 C.3       3 UNK        -0.2001 
     29 N          26.1577   24.1329    2.7943 N.am      3 UNK        -0.4354 
     30 C          26.8476   24.3378    3.9254 C.2       2 UNK         0.4964 
     31 O          26.3264   24.3476    5.0420 O.2       2 UNK        -0.5047 
     32 CA         28.3690   24.5885    3.8146 C.3       2 UNK         0.0288 
     33 CB         29.1520   23.8681    4.9340 C.3       2 UNK        -0.2113 
     34 N          28.9492   24.2962    2.4953 N.am      2 UNK        -0.4145 
     35 C          29.0358   23.1063    1.8785 C.2       1 UNK         0.5006 
     36 O          28.6610   22.0364    2.3627 O.2       1 UNK        -0.5103 
     37 C          27.6452   28.9381    0.0642 C.2       5 UNK         0.5055 
     38 O          28.1577   28.6691    1.1528 O.2       5 UNK        -0.5220 
     39 N          27.2179   30.1604   -0.2793 N.am      6 UNK        -0.4450 
     40 CA         27.2606   31.3338    0.5975 C.3       6 UNK         0.0367 
     41 CB         26.2572   32.3803    0.0864 C.3       6 UNK        -0.1929 
     42 C          28.6593   31.9591    0.7315 C.2       6 UNK         0.5070 
     43 O          28.9297   32.6106    1.7407 O.2       6 UNK        -0.5237 
     44 N          29.5313   31.7572   -0.2667 N.am      7 UNK        -0.4739 
     45 CA         30.8980   32.2949   -0.3334 C.3       7 UNK         0.0276 
     46 CB         31.3372   32.3346   -1.8094 C.3       7 UNK        -0.1927 
     47 C          31.8916   31.5162    0.5562 C.2       7 UNK         0.5013 
     48 O          32.9581   31.1125    0.0892 O.2       7 UNK        -0.5193 
     49 N          31.4997   31.2715    1.8097 N.am      8 UNK        -0.4253 
     50 CA         32.2255   30.4595    2.7786 C.3       8 UNK         0.0242 
     51 CB         31.2452   30.0270    3.8817 C.3       8 UNK        -0.2000 
     52 C          33.4120   31.2132    3.3875 C.2       8 UNK         0.4948 
     53 O          33.2537   32.3548    3.8264 O.2       8 UNK        -0.5275 
     54 N          34.5562   30.5277    3.4996 N.am      9 UNK        -0.4246 
     55 CA         35.7473   30.9906    4.2171 C.3       9 UNK         0.0261 
     56 CB         36.9908   30.3177    3.6061 C.3       9 UNK        -0.1959 
     57 C          35.5984   30.7097    5.7248 C.2       9 UNK         0.5033 
     58 O          36.3751   29.9389    6.2902 O.2       9 UNK        -0.5390 
     59 N          34.5457   31.2874    6.3233 N.am      10 UNK        -0.4215 
     60 CA         34.0597   31.1026    7.7005 C.3       10 UNK         0.0240 
     61 CB         35.1225   31.5374    8.7319 C.3       10 UNK        -0.1982 
     62 C          33.4981   29.6958    8.0097 C.2       10 UNK         0.4970 
     63 O          33.1061   29.4490    9.1509 O.2       10 UNK        -0.4916 
     64 N          33.4365   28.8116    7.0058 N.am      11 UNK        -0.4279 
     65 CA         32.9066   27.4419    7.0926 C.3       11 UNK         0.1003 
     66 C          31.3532   27.3222    7.0787 C.2       11 UNK         0.5709 
     67 N          30.5976   28.4103    6.9919 N.am      11 UNK        -0.7358 
     68 O          30.8217   26.2182    7.1635 O.2       11 UNK        -0.4999 
     69 C69        33.5937   26.5025    6.0635 C.3       12 UNK        -0.0954 
     70 S70        33.5035   27.0587    4.3242 S.3       12 UNK        -0.2268 
     71 C71        32.1266   26.0496    3.6933 C.3       12 UNK         0.0203 
     72 H72        26.9266   22.0067   -2.3298 H         1 UNK         0.0888 
     73 H73        25.5287   22.5455   -1.3971 H         1 UNK         0.0888 
     74 H74        26.3023   23.6440   -2.5422 H         1 UNK         0.0888 
     75 H75        28.8301   22.0193   -1.1596 H         1 UNK         0.3017 
     76 H76        29.9135   24.1563    0.2286 H         1 UNK         0.0873 
     77 H77        30.5558   21.1667    0.3278 H         1 UNK         0.0745 
     78 H78        31.5172   22.3355    1.1804 H         1 UNK         0.0745 
     79 H79        33.7921   22.9581    0.0837 H         1 UNK         0.0705 
     80 H80        33.8185   23.8409   -1.4226 H         1 UNK         0.0705 
     81 H81        33.0561   24.0522    2.0971 H         1 UNK         0.1334 
     82 H82        31.1772   27.8942    1.9228 H         1 UNK         0.1417 
     83 H83        32.2463   25.8698   -1.7023 H         1 UNK         0.1562 
     84 H84        32.0308   28.7389   -1.2125 H         1 UNK         0.0748 
     85 H85        30.6846   28.9403   -0.1184 H         1 UNK         0.0748 
     86 H86        29.0566   26.5556   -0.2276 H         1 UNK         0.0940 
     87 H87        28.4274   26.0610   -1.7659 H         1 UNK         0.0940 
     88 H88        27.1848   28.2759   -1.9386 H         1 UNK         0.0703 
     89 H89        26.5367   26.0577   -0.2588 H         1 UNK         0.3081 
     90 H90        23.2022   26.9332    0.4095 H         1 UNK         0.0719 
     91 H91        24.0063   25.0342   -1.8644 H         1 UNK         0.0809 
     92 H92        22.4889   24.9830   -0.9680 H         1 UNK         0.0809 
     93 H93        22.8558   26.3588   -1.9958 H         1 UNK         0.0809 
     94 H94        25.4008   24.9101    0.4972 H         1 UNK         0.2990 
     95 H95        24.2865   23.8319    3.7272 H         1 UNK         0.0690 
     96 H96        23.4341   22.2420    2.0196 H         1 UNK         0.0788 
     97 H97        24.9654   21.6887    2.6796 H         1 UNK         0.0788 
     98 H98        24.9094   22.4202    1.0789 H         1 UNK         0.0788 
     99 H99        26.6571   24.1598    1.9115 H         1 UNK         0.2993 
    100 H100       28.5003   25.6614    3.9643 H         1 UNK         0.0949 
    101 H101       28.8502   24.2301    5.9178 H         1 UNK         0.0767 
    102 H102       28.9823   22.7912    4.9195 H         1 UNK         0.0767 
    103 H103       30.2237   24.0385    4.8494 H         1 UNK         0.0767 
    104 H104       29.2675   25.1090    1.9864 H         1 UNK         0.3013 
    105 H105       26.7628   30.2792   -1.1739 H         1 UNK         0.3121 
    106 H106       26.9466   31.0251    1.5972 H         1 UNK         0.0774 
    107 H107       26.5097   32.7281   -0.9161 H         1 UNK         0.0815 
    108 H108       26.2387   33.2544    0.7391 H         1 UNK         0.0815 
    109 H109       25.2442   31.9782    0.0585 H         1 UNK         0.0815 
    110 H110       29.2341   31.1849   -1.0435 H         1 UNK         0.2987 
    111 H111       30.8852   33.3226    0.0367 H         1 UNK         0.0949 
    112 H112       31.3850   31.3346   -2.2427 H         1 UNK         0.0806 
    113 H113       30.6515   32.9302   -2.4124 H         1 UNK         0.0806 
    114 H114       32.3263   32.7830   -1.9127 H         1 UNK         0.0806 
    115 H115       30.6227   31.6842    2.1124 H         1 UNK         0.3010 
    116 H116       32.6060   29.5733    2.2691 H         1 UNK         0.0829 
    117 H117       31.7341   29.3780    4.6056 H         1 UNK         0.0813 
    118 H118       30.8504   30.8844    4.4286 H         1 UNK         0.0813 
    119 H119       30.3964   29.4771    3.4745 H         1 UNK         0.0813 
    120 H120       34.5912   29.5811    3.1465 H         1 UNK         0.3038 
    121 H121       35.8545   32.0703    4.0904 H         1 UNK         0.0769 
    122 H122       37.9009   30.6539    4.1047 H         1 UNK         0.0811 
    123 H123       36.9506   29.2313    3.6979 H         1 UNK         0.0811 
    124 H124       37.0936   30.5612    2.5485 H         1 UNK         0.0811 
    125 H125       33.9688   31.8813    5.7338 H         1 UNK         0.3204 
    126 H126       33.2127   31.7826    7.8030 H         1 UNK         0.0748 
    127 H127       34.7069   31.5520    9.7403 H         1 UNK         0.0771 
    128 H128       35.9774   30.8608    8.7463 H         1 UNK         0.0771 
    129 H129       35.4919   32.5412    8.5222 H         1 UNK         0.0771 
    130 H130       33.7950   29.0809    6.1032 H         1 UNK         0.2980 
    131 H131       33.1904   27.0617    8.0757 H         1 UNK         0.0545 
    132 H132       29.5953   28.3112    6.9953 H         1 UNK         0.3459 
    133 H133       31.0147   29.3248    6.9584 H         1 UNK         0.3459 
    134 H134       34.6534   26.4291    6.3125 H         1 UNK         0.0616 
    135 H135       33.2143   25.4830    6.1504 H         1 UNK         0.0616 
    136 H136       32.2027   25.0403    4.0988 H         1 UNK         0.0634 
    137 H137       31.1806   26.4602    4.0493 H         1 UNK         0.0634 
@<TRIPOS>BOND
     1    1    2 1    
     2    1   72 1    
     3    1   73 1    
     4    1   74 1    
     5    2    3 2    
     6    2    4 am   BACKBONE|DICT|INTERRES
     7    4    5 1    
     8    4   75 1    
     9    5    6 1    
    10    5   35 1    
    11    5   76 1    
    12    6    7 1    
    13    6   77 1    
    14    6   78 1    
    15    7    8 1    
    16    8    9 1    
    17    8   79 1    
    18    8   80 1    
    19    9   10 ar   
    20    9   14 ar   
    21   10   11 ar   
    22   10   81 1    
    23   11   12 ar   
    24   11   71 1    
    25   12   13 ar   
    26   12   82 1    
    27   13   14 ar   
    28   13   15 1    
    29   14   83 1    
    30   15   16 1    
    31   15   84 1    
    32   15   85 1    
    33   16   17 1    
    34   17   18 1    
    35   17   86 1    
    36   17   87 1    
    37   18   19 1    
    38   18   37 1    
    39   18   88 1    
    40   19   20 am   BACKBONE|DICT|INTERRES
    41   19   89 1    
    42   20   21 2    
    43   20   22 1    
    44   22   23 1    
    45   22   24 1    
    46   22   90 1    
    47   23   91 1    
    48   23   92 1    
    49   23   93 1    
    50   24   25 am   BACKBONE|DICT|INTERRES
    51   24   94 1    
    52   25   26 2    
    53   25   27 1    
    54   27   28 1    
    55   27   29 1    
    56   27   95 1    
    57   28   96 1    
    58   28   97 1    
    59   28   98 1    
    60   29   30 am   BACKBONE|DICT|INTERRES
    61   29   99 1    
    62   30   31 2    
    63   30   32 1    
    64   32   33 1    
    65   32   34 1    
    66   32  100 1    
    67   33  101 1    
    68   33  102 1    
    69   33  103 1    
    70   34   35 am   BACKBONE|DICT|INTERRES
    71   34  104 1    
    72   35   36 2    
    73   37   38 2    
    74   37   39 am   BACKBONE|DICT|INTERRES
    75   39   40 1    
    76   39  105 1    
    77   40   41 1    
    78   40   42 1    
    79   40  106 1    
    80   41  107 1    
    81   41  108 1    
    82   41  109 1    
    83   42   43 2    
    84   42   44 am   BACKBONE|DICT|INTERRES
    85   44   45 1    
    86   44  110 1    
    87   45   46 1    
    88   45   47 1    
    89   45  111 1    
    90   46  112 1    
    91   46  113 1    
    92   46  114 1    
    93   47   48 2    
    94   47   49 am   BACKBONE|DICT|INTERRES
    95   49   50 1    
    96   49  115 1    
    97   50   51 1    
    98   50   52 1    
    99   50  116 1    
   100   51  117 1    
   101   51  118 1    
   102   51  119 1    
   103   52   53 2    
   104   52   54 am   BACKBONE|DICT|INTERRES
   105   54   55 1    
   106   54  120 1    
   107   55   56 1    
   108   55   57 1    
   109   55  121 1    
   110   56  122 1    
   111   56  123 1    
   112   56  124 1    
   113   57   58 2    
   114   57   59 am   BACKBONE|DICT|INTERRES
   115   59   60 1    
   116   59  125 1    
   117   60   61 1    
   118   60   62 1    
   119   60  126 1    
   120   61  127 1    
   121   61  128 1    
   122   61  129 1    
   123   62   63 2    
   124   62   64 am   BACKBONE|DICT|INTERRES
   125   64   65 1    
   126   64  130 1    
   127   65   66 1    
   128   65   69 1    
   129   65  131 1    
   130   66   67 am   BACKBONE|DICT|INTERRES
   131   66   68 2    
   132   67  132 1    
   133   67  133 1    
   134   69   70 1    
   135   69  134 1    
   136   69  135 1    
   137   70   71 1    
   138   71  136 1    
   139   71  137 1    
@<TRIPOS>SUBSTRUCTURE
     1 UNK         1 GROUP             0       ****    0 ROOT    
