@<TRIPOS>MOLECULE
3R136
137   139    1
SMALL
USER_CHARGES


@<TRIPOS>ATOM
      1 CA         30.6363   23.2450    5.2811 C.3       0 UNK        -0.1979 
      2 C          29.4528   23.3196    4.3291 C.2       0 UNK         0.4864 
      3 O          28.3090   23.3962    4.7790 O.2       0 UNK        -0.5359 
      4 N          29.7075   23.3271    3.0139 N.am      1 UNK        -0.4318 
      5 CA         28.7044   23.3277    1.9383 C.3       1 UNK         0.0824 
      6 C6         29.2238   22.6274    0.6524 C.3       12 UNK        -0.0944 
      7 S7         29.9798   20.9851    0.9878 S.3       12 UNK        -0.2672 
      8 C8         31.7824   21.1212    0.6541 C.3       12 UNK         0.0333 
      9 C9         32.3037   22.5486    0.5724 C.ar      12 UNK        -0.0807 
     10 C10        32.6090   23.2679    1.7306 C.ar      12 UNK        -0.0894 
     11 C11        32.9613   24.6193    1.6507 C.ar      12 UNK        -0.0804 
     12 C12        33.0446   25.2371    0.3987 C.ar      12 UNK        -0.0824 
     13 C13        32.7742   24.5172   -0.7694 C.ar      12 UNK        -0.0762 
     14 C14        32.4301   23.1654   -0.6741 C.ar      12 UNK        -0.0782 
     15 C15        32.8108   25.2175   -2.1248 C.3       12 UNK         0.0230 
     16 S16        31.3903   24.7961   -3.1967 S.3       12 UNK        -0.2608 
     17 C17        29.9670   25.2329   -2.1372 C.3       12 UNK        -0.0989 
     18 CA         29.2258   26.5041   -2.6096 C.3       5 UNK         0.0716 
     19 N          27.8431   26.5237   -2.1141 N.am      5 UNK        -0.4135 
     20 C          26.8744   27.2617   -2.6767 C.2       4 UNK         0.5031 
     21 O          27.0868   28.0898   -3.5639 O.2       4 UNK        -0.5229 
     22 CA         25.4189   27.0207   -2.2484 C.3       4 UNK         0.0329 
     23 CB         24.7577   25.9950   -3.1914 C.3       4 UNK        -0.2001 
     24 N          25.2490   26.6065   -0.8517 N.am      4 UNK        -0.4303 
     25 C          24.1003   26.7641   -0.1727 C.2       3 UNK         0.5044 
     26 O          23.0931   27.2913   -0.6480 O.2       3 UNK        -0.5152 
     27 CA         24.0362   26.2404    1.2745 C.3       3 UNK         0.0319 
     28 CB         23.3629   24.8588    1.3141 C.3       3 UNK        -0.2001 
     29 N          25.3441   26.1505    1.9199 N.am      3 UNK        -0.4354 
     30 C          26.1020   27.1977    2.2708 C.2       2 UNK         0.4964 
     31 O          25.7230   28.3654    2.1802 O.2       2 UNK        -0.5047 
     32 CA         27.5121   26.8983    2.8148 C.3       2 UNK         0.0288 
     33 CB         27.6638   27.3973    4.2607 C.3       2 UNK        -0.2113 
     34 N          27.9058   25.4890    2.7658 N.am      2 UNK        -0.4145 
     35 C          28.1632   24.7553    1.6743 C.2       1 UNK         0.5006 
     36 O          27.9810   25.1657    0.5226 O.2       1 UNK        -0.5103 
     37 C          30.0166   27.7786   -2.2513 C.2       5 UNK         0.5055 
     38 O          30.8130   28.2519   -3.0642 O.2       5 UNK        -0.5220 
     39 N          29.7940   28.3046   -1.0443 N.am      6 UNK        -0.4450 
     40 CA         30.4784   29.4645   -0.4830 C.3       6 UNK         0.0367 
     41 CB         31.8636   29.0444    0.0510 C.3       6 UNK        -0.1929 
     42 C          29.5969   30.0552    0.6231 C.2       6 UNK         0.5070 
     43 O          28.5077   29.5381    0.8771 O.2       6 UNK        -0.5237 
     44 N          30.0764   31.1249    1.2649 N.am      7 UNK        -0.4739 
     45 CA         29.4549   31.7022    2.4566 C.3       7 UNK         0.0276 
     46 CB         29.9507   33.1488    2.6216 C.3       7 UNK        -0.1927 
     47 C          29.8090   30.8809    3.7059 C.2       7 UNK         0.5013 
     48 O          30.8982   30.3046    3.7721 O.2       7 UNK        -0.5193 
     49 N          28.9367   30.9225    4.7220 N.am      8 UNK        -0.4253 
     50 CA         29.1794   30.3168    6.0387 C.3       8 UNK         0.0242 
     51 CB         27.9230   30.4537    6.9125 C.3       8 UNK        -0.2000 
     52 C          30.4100   30.9001    6.7568 C.2       8 UNK         0.4948 
     53 O          31.1060   30.1672    7.4574 O.2       8 UNK        -0.5275 
     54 N          30.6910   32.1888    6.5173 N.am      9 UNK        -0.4246 
     55 CA         31.8972   32.8824    6.9724 C.3       9 UNK         0.0261 
     56 CB         31.7190   34.3938    6.7535 C.3       9 UNK        -0.1959 
     57 C          33.1908   32.3914    6.2925 C.2       9 UNK         0.5033 
     58 O          34.2632   32.5608    6.8745 O.2       9 UNK        -0.5390 
     59 N          33.0832   31.8071    5.0891 N.am      10 UNK        -0.4215 
     60 CA         34.2061   31.2141    4.3629 C.3       10 UNK         0.0240 
     61 CB         33.9656   31.3028    2.8464 C.3       10 UNK        -0.1982 
     62 C          34.4365   29.7621    4.8039 C.2       10 UNK         0.4970 
     63 O          35.5862   29.3872    5.0383 O.2       10 UNK        -0.4916 
     64 N          33.3540   28.9783    4.9215 N.am      11 UNK        -0.4279 
     65 CA         33.4049   27.5968    5.4262 C.3       11 UNK         0.1003 
     66 C          33.7546   27.4849    6.9368 C.2       11 UNK         0.5709 
     67 N          33.3233   28.4068    7.7875 N.am      11 UNK        -0.7358 
     68 O          34.4374   26.5465    7.3404 O.2       11 UNK        -0.4999 
     69 C69        32.1187   26.7944    5.1014 C.3       12 UNK        -0.0954 
     70 S70        31.8443   26.5262    3.3192 S.3       12 UNK        -0.2268 
     71 C71        33.2347   25.4183    2.9152 C.3       12 UNK         0.0203 
     72 H72        30.5314   23.9912    6.0681 H         1 UNK         0.0888 
     73 H73        31.5821   23.4224    4.7726 H         1 UNK         0.0888 
     74 H74        30.6781   22.2617    5.7485 H         1 UNK         0.0888 
     75 H75        30.6635   23.3142    2.6894 H         1 UNK         0.3017 
     76 H76        27.8485   22.7446    2.2852 H         1 UNK         0.0873 
     77 H77        28.3906   22.4647   -0.0335 H         1 UNK         0.0745 
     78 H78        29.9071   23.2758    0.1116 H         1 UNK         0.0745 
     79 H79        32.3224   20.5795    1.4320 H         1 UNK         0.0705 
     80 H80        31.9990   20.5939   -0.2762 H         1 UNK         0.0705 
     81 H81        32.5454   22.7790    2.6926 H         1 UNK         0.1334 
     82 H82        33.3040   26.2853    0.3402 H         1 UNK         0.1417 
     83 H83        32.1987   22.6064   -1.5707 H         1 UNK         0.1562 
     84 H84        33.7335   24.9440   -2.6378 H         1 UNK         0.0748 
     85 H85        32.8361   26.3009   -1.9977 H         1 UNK         0.0748 
     86 H86        30.2642   25.3256   -1.0915 H         1 UNK         0.0940 
     87 H87        29.2910   24.3769   -2.1704 H         1 UNK         0.0940 
     88 H88        29.1678   26.4636   -3.7001 H         1 UNK         0.0703 
     89 H89        27.6380   25.8809   -1.3581 H         1 UNK         0.3081 
     90 H90        24.9105   27.9788   -2.3801 H         1 UNK         0.0719 
     91 H91        25.1825   24.9990   -3.0617 H         1 UNK         0.0809 
     92 H92        23.6835   25.9253   -3.0201 H         1 UNK         0.0809 
     93 H93        24.8953   26.2756   -4.2368 H         1 UNK         0.0809 
     94 H94        26.0404   26.1927   -0.3777 H         1 UNK         0.2990 
     95 H95        23.4222   26.9373    1.8491 H         1 UNK         0.0690 
     96 H96        23.2412   24.5049    2.3380 H         1 UNK         0.0788 
     97 H97        23.9383   24.1123    0.7650 H         1 UNK         0.0788 
     98 H98        22.3685   24.8969    0.8666 H         1 UNK         0.0788 
     99 H99        25.7262   25.2258    2.0494 H         1 UNK         0.2993 
    100 H100       28.2197   27.4448    2.1927 H         1 UNK         0.0949 
    101 H101       27.4165   28.4567    4.3348 H         1 UNK         0.0767 
    102 H102       27.0078   26.8584    4.9453 H         1 UNK         0.0767 
    103 H103       28.6895   27.2789    4.6108 H         1 UNK         0.0767 
    104 H104       28.0354   25.0252    3.6597 H         1 UNK         0.3013 
    105 H105       29.0616   27.9297   -0.4537 H         1 UNK         0.3121 
    106 H106       30.5959   30.2230   -1.2598 H         1 UNK         0.0774 
    107 H107       32.4581   28.5522   -0.7183 H         1 UNK         0.0815 
    108 H108       31.7758   28.3601    0.8956 H         1 UNK         0.0815 
    109 H109       32.4377   29.9076    0.3860 H         1 UNK         0.0815 
    110 H110       30.9909   31.4736    1.0188 H         1 UNK         0.2987 
    111 H111       28.3697   31.7093    2.3295 H         1 UNK         0.0949 
    112 H112       31.0305   33.1941    2.7717 H         1 UNK         0.0806 
    113 H113       29.7103   33.7511    1.7452 H         1 UNK         0.0806 
    114 H114       29.4811   33.6315    3.4796 H         1 UNK         0.0806 
    115 H115       28.0670   31.4228    4.6036 H         1 UNK         0.3010 
    116 H116       29.3758   29.2543    5.8842 H         1 UNK         0.0829 
    117 H117       27.0649   29.9608    6.4552 H         1 UNK         0.0813 
    118 H118       28.0761   29.9914    7.8889 H         1 UNK         0.0813 
    119 H119       27.6598   31.4981    7.0843 H         1 UNK         0.0813 
    120 H120       30.0510   32.7179    5.9437 H         1 UNK         0.3038 
    121 H121       32.0040   32.7012    8.0442 H         1 UNK         0.0769 
    122 H122       31.5910   34.6378    5.6980 H         1 UNK         0.0811 
    123 H123       32.5899   34.9449    7.1114 H         1 UNK         0.0811 
    124 H124       30.8531   34.7750    7.2954 H         1 UNK         0.0811 
    125 H125       32.1625   31.6334    4.7043 H         1 UNK         0.3204 
    126 H126       35.1138   31.7803    4.5838 H         1 UNK         0.0748 
    127 H127       33.8007   32.3328    2.5301 H         1 UNK         0.0771 
    128 H128       34.8294   30.9283    2.2957 H         1 UNK         0.0771 
    129 H129       33.1051   30.7132    2.5338 H         1 UNK         0.0771 
    130 H130       32.4428   29.3389    4.6594 H         1 UNK         0.2980 
    131 H131       34.2299   27.1070    4.9068 H         1 UNK         0.0545 
    132 H132       33.5661   28.3227    8.7611 H         1 UNK         0.3459 
    133 H133       32.6685   29.1281    7.4974 H         1 UNK         0.3459 
    134 H134       32.1458   25.8139    5.5791 H         1 UNK         0.0616 
    135 H135       31.2437   27.3043    5.5083 H         1 UNK         0.0616 
    136 H136       33.4280   24.7464    3.7525 H         1 UNK         0.0634 
    137 H137       34.1395   26.0127    2.7813 H         1 UNK         0.0634 
@<TRIPOS>BOND
     1    1    2 1    
     2    1   72 1    
     3    1   73 1    
     4    1   74 1    
     5    2    3 2    
     6    2    4 am   BACKBONE|DICT|INTERRES
     7    4    5 1    
     8    4   75 1    
     9    5    6 1    
    10    5   35 1    
    11    5   76 1    
    12    6    7 1    
    13    6   77 1    
    14    6   78 1    
    15    7    8 1    
    16    8    9 1    
    17    8   79 1    
    18    8   80 1    
    19    9   10 ar   
    20    9   14 ar   
    21   10   11 ar   
    22   10   81 1    
    23   11   12 ar   
    24   11   71 1    
    25   12   13 ar   
    26   12   82 1    
    27   13   14 ar   
    28   13   15 1    
    29   14   83 1    
    30   15   16 1    
    31   15   84 1    
    32   15   85 1    
    33   16   17 1    
    34   17   18 1    
    35   17   86 1    
    36   17   87 1    
    37   18   19 1    
    38   18   37 1    
    39   18   88 1    
    40   19   20 am   BACKBONE|DICT|INTERRES
    41   19   89 1    
    42   20   21 2    
    43   20   22 1    
    44   22   23 1    
    45   22   24 1    
    46   22   90 1    
    47   23   91 1    
    48   23   92 1    
    49   23   93 1    
    50   24   25 am   BACKBONE|DICT|INTERRES
    51   24   94 1    
    52   25   26 2    
    53   25   27 1    
    54   27   28 1    
    55   27   29 1    
    56   27   95 1    
    57   28   96 1    
    58   28   97 1    
    59   28   98 1    
    60   29   30 am   BACKBONE|DICT|INTERRES
    61   29   99 1    
    62   30   31 2    
    63   30   32 1    
    64   32   33 1    
    65   32   34 1    
    66   32  100 1    
    67   33  101 1    
    68   33  102 1    
    69   33  103 1    
    70   34   35 am   BACKBONE|DICT|INTERRES
    71   34  104 1    
    72   35   36 2    
    73   37   38 2    
    74   37   39 am   BACKBONE|DICT|INTERRES
    75   39   40 1    
    76   39  105 1    
    77   40   41 1    
    78   40   42 1    
    79   40  106 1    
    80   41  107 1    
    81   41  108 1    
    82   41  109 1    
    83   42   43 2    
    84   42   44 am   BACKBONE|DICT|INTERRES
    85   44   45 1    
    86   44  110 1    
    87   45   46 1    
    88   45   47 1    
    89   45  111 1    
    90   46  112 1    
    91   46  113 1    
    92   46  114 1    
    93   47   48 2    
    94   47   49 am   BACKBONE|DICT|INTERRES
    95   49   50 1    
    96   49  115 1    
    97   50   51 1    
    98   50   52 1    
    99   50  116 1    
   100   51  117 1    
   101   51  118 1    
   102   51  119 1    
   103   52   53 2    
   104   52   54 am   BACKBONE|DICT|INTERRES
   105   54   55 1    
   106   54  120 1    
   107   55   56 1    
   108   55   57 1    
   109   55  121 1    
   110   56  122 1    
   111   56  123 1    
   112   56  124 1    
   113   57   58 2    
   114   57   59 am   BACKBONE|DICT|INTERRES
   115   59   60 1    
   116   59  125 1    
   117   60   61 1    
   118   60   62 1    
   119   60  126 1    
   120   61  127 1    
   121   61  128 1    
   122   61  129 1    
   123   62   63 2    
   124   62   64 am   BACKBONE|DICT|INTERRES
   125   64   65 1    
   126   64  130 1    
   127   65   66 1    
   128   65   69 1    
   129   65  131 1    
   130   66   67 am   BACKBONE|DICT|INTERRES
   131   66   68 2    
   132   67  132 1    
   133   67  133 1    
   134   69   70 1    
   135   69  134 1    
   136   69  135 1    
   137   70   71 1    
   138   71  136 1    
   139   71  137 1    
@<TRIPOS>SUBSTRUCTURE
     1 UNK         1 GROUP             0       ****    0 ROOT    
