@<TRIPOS>MOLECULE
3R136
137   139    1
SMALL
USER_CHARGES


@<TRIPOS>ATOM
      1 CA         29.5713   21.3773   -3.1370 C.3       0 UNK        -0.1979 
      2 C          29.0082   22.7516   -2.8081 C.2       0 UNK         0.4864 
      3 O          28.3541   23.3663   -3.6531 O.2       0 UNK        -0.5359 
      4 N          29.2467   23.2402   -1.5838 N.am      1 UNK        -0.4318 
      5 CA         28.7915   24.5446   -1.0896 C.3       1 UNK         0.0824 
      6 C6         29.6819   25.0749    0.0620 C.3       12 UNK        -0.0944 
      7 S7         31.4047   25.3508   -0.4648 S.3       12 UNK        -0.2672 
      8 C8         32.2843   23.9972    0.3776 C.3       12 UNK         0.0333 
      9 C9         32.6859   24.3747    1.7967 C.ar      12 UNK        -0.0807 
     10 C10        33.9194   24.9900    2.0313 C.ar      12 UNK        -0.0894 
     11 C11        34.3225   25.3120    3.3310 C.ar      12 UNK        -0.0804 
     12 C12        33.4675   25.0252    4.3997 C.ar      12 UNK        -0.0824 
     13 C13        32.2260   24.4203    4.1819 C.ar      12 UNK        -0.0762 
     14 C14        31.8483   24.0824    2.8775 C.ar      12 UNK        -0.0782 
     15 C15        31.3273   24.1013    5.3734 C.3       12 UNK         0.0230 
     16 S16        29.5795   24.5650    5.1318 S.3       12 UNK        -0.2608 
     17 C17        29.6796   26.3606    4.8053 C.3       12 UNK        -0.0989 
     18 CA         29.1368   26.7222    3.3958 C.3       5 UNK         0.0716 
     19 N          27.7664   26.2406    3.1375 N.am      5 UNK        -0.4135 
     20 C          26.6645   26.4959    3.8576 C.2       4 UNK         0.5031 
     21 O          26.6287   27.2733    4.8122 O.2       4 UNK        -0.5229 
     22 CA         25.3857   25.8006    3.3712 C.3       4 UNK         0.0329 
     23 CB         24.1898   25.9590    4.3353 C.3       4 UNK        -0.2001 
     24 N          25.0513   26.2235    2.0082 N.am      4 UNK        -0.4303 
     25 C          24.6327   27.4271    1.5844 C.2       3 UNK         0.5044 
     26 O          24.4341   28.3827    2.3340 O.2       3 UNK        -0.5152 
     27 CA         24.4155   27.6196    0.0645 C.3       3 UNK         0.0319 
     28 CB         25.1213   28.8910   -0.4400 C.3       3 UNK        -0.2001 
     29 N          24.8620   26.4839   -0.7492 N.am      3 UNK        -0.4354 
     30 C          24.2279   25.3088   -0.8667 C.2       2 UNK         0.4964 
     31 O          23.1164   25.0850   -0.3876 O.2       2 UNK        -0.5047 
     32 CA         24.9724   24.1731   -1.5952 C.3       2 UNK         0.0288 
     33 CB         24.3958   23.9748   -3.0065 C.3       2 UNK        -0.2113 
     34 N          26.4300   24.3329   -1.6970 N.am      2 UNK        -0.4145 
     35 C          27.3028   24.4792   -0.6885 C.2       1 UNK         0.5006 
     36 O          26.9768   24.5625    0.4995 O.2       1 UNK        -0.5103 
     37 C          29.3457   28.2187    3.0710 C.2       5 UNK         0.5055 
     38 O          30.4888   28.6324    2.8659 O.2       5 UNK        -0.5220 
     39 N          28.2639   29.0052    2.9701 N.am      6 UNK        -0.4450 
     40 CA         28.2641   30.4304    2.6215 C.3       6 UNK         0.0367 
     41 CB         26.8344   30.9802    2.7276 C.3       6 UNK        -0.1929 
     42 C          28.8573   30.7404    1.2351 C.2       6 UNK         0.5070 
     43 O          29.3747   31.8387    1.0384 O.2       6 UNK        -0.5237 
     44 N          28.8400   29.7586    0.3211 N.am      7 UNK        -0.4739 
     45 CA         29.5010   29.8211   -0.9885 C.3       7 UNK         0.0276 
     46 CB         29.0889   28.6013   -1.8280 C.3       7 UNK        -0.1927 
     47 C          31.0377   29.9200   -0.8978 C.2       7 UNK         0.5013 
     48 O          31.6581   30.4568   -1.8156 O.2       7 UNK        -0.5193 
     49 N          31.6130   29.4369    0.2122 N.am      8 UNK        -0.4253 
     50 CA         33.0256   29.5758    0.5704 C.3       8 UNK         0.0242 
     51 CB         33.5646   28.1945    0.9756 C.3       8 UNK        -0.2000 
     52 C          33.2217   30.6095    1.6975 C.2       8 UNK         0.4948 
     53 O          34.2799   30.6210    2.3260 O.2       8 UNK        -0.5275 
     54 N          32.2040   31.4505    1.9449 N.am      9 UNK        -0.4246 
     55 CA         32.1219   32.4784    2.9885 C.3       9 UNK         0.0261 
     56 CB         33.1970   33.5688    2.7858 C.3       9 UNK        -0.1959 
     57 C          32.0956   31.9186    4.4260 C.2       9 UNK         0.5033 
     58 O          32.4476   32.6504    5.3525 O.2       9 UNK        -0.5390 
     59 N          31.6431   30.6628    4.5901 N.am      10 UNK        -0.4215 
     60 CA         31.4672   29.9299    5.8502 C.3       10 UNK         0.0240 
     61 CB         30.3117   30.5355    6.6744 C.3       10 UNK        -0.1982 
     62 C          32.7798   29.8090    6.6452 C.2       10 UNK         0.4970 
     63 O          32.9552   30.4940    7.6550 O.2       10 UNK        -0.4916 
     64 N          33.6805   28.9560    6.1384 N.am      11 UNK        -0.4279 
     65 CA         35.0362   28.6962    6.6522 C.3       11 UNK         0.1003 
     66 C          35.1018   28.4165    8.1809 C.2       11 UNK         0.5709 
     67 N          36.0785   28.9820    8.8775 N.am      11 UNK        -0.7358 
     68 O          34.3071   27.6508    8.7242 O.2       11 UNK        -0.4999 
     69 C69        35.7241   27.5323    5.8892 C.3       12 UNK        -0.0954 
     70 S70        35.6337   27.6686    4.0711 S.3       12 UNK        -0.2268 
     71 C71        35.7014   25.9170    3.5736 C.3       12 UNK         0.0203 
     72 H72        30.1311   20.9554   -2.3025 H         1 UNK         0.0888 
     73 H73        28.7627   20.6905   -3.3857 H         1 UNK         0.0888 
     74 H74        30.2399   21.4424   -3.9950 H         1 UNK         0.0888 
     75 H75        29.7651   22.6809   -0.9229 H         1 UNK         0.3017 
     76 H76        28.8637   25.2641   -1.9086 H         1 UNK         0.0873 
     77 H77        29.6521   24.3997    0.9175 H         1 UNK         0.0745 
     78 H78        29.3020   26.0347    0.4134 H         1 UNK         0.0745 
     79 H79        31.6741   23.0932    0.3782 H         1 UNK         0.0705 
     80 H80        33.1766   23.7540   -0.2013 H         1 UNK         0.0705 
     81 H81        34.5735   25.2057    1.1974 H         1 UNK         0.1334 
     82 H82        33.7721   25.2551    5.4091 H         1 UNK         0.1417 
     83 H83        30.9015   23.5894    2.7084 H         1 UNK         0.1562 
     84 H84        31.6898   24.5981    6.2749 H         1 UNK         0.0748 
     85 H85        31.3797   23.0301    5.5716 H         1 UNK         0.0748 
     86 H86        30.7182   26.6803    4.9035 H         1 UNK         0.0940 
     87 H87        29.1288   26.8875    5.5862 H         1 UNK         0.0940 
     88 H88        29.7683   26.1937    2.6827 H         1 UNK         0.0703 
     89 H89        27.6653   25.6127    2.3484 H         1 UNK         0.3081 
     90 H90        25.6144   24.7350    3.3136 H         1 UNK         0.0719 
     91 H91        23.9220   27.0039    4.4937 H         1 UNK         0.0809 
     92 H92        23.3078   25.4397    3.9609 H         1 UNK         0.0809 
     93 H93        24.4250   25.5374    5.3132 H         1 UNK         0.0809 
     94 H94        25.2575   25.5347    1.2944 H         1 UNK         0.2990 
     95 H95        23.3417   27.7473   -0.0876 H         1 UNK         0.0690 
     96 H96        24.9633   29.0376   -1.5086 H         1 UNK         0.0788 
     97 H97        26.1948   28.8536   -0.2600 H         1 UNK         0.0788 
     98 H98        24.7369   29.7793    0.0629 H         1 UNK         0.0788 
     99 H99        25.7646   26.5742   -1.1906 H         1 UNK         0.2993 
    100 H100       24.7913   23.2622   -1.0208 H         1 UNK         0.0949 
    101 H101       24.8341   23.1045   -3.4959 H         1 UNK         0.0767 
    102 H102       23.3170   23.8147   -2.9716 H         1 UNK         0.0767 
    103 H103       24.5770   24.8435   -3.6409 H         1 UNK         0.0767 
    104 H104       26.8304   24.2129   -2.6231 H         1 UNK         0.3013 
    105 H105       27.3715   28.6024    3.2288 H         1 UNK         0.3121 
    106 H106       28.8818   30.9456    3.3598 H         1 UNK         0.0774 
    107 H107       26.8120   32.0521    2.5258 H         1 UNK         0.0815 
    108 H108       26.1639   30.5009    2.0144 H         1 UNK         0.0815 
    109 H109       26.4230   30.8306    3.7260 H         1 UNK         0.0815 
    110 H110       28.4001   28.8867    0.5718 H         1 UNK         0.2987 
    111 H111       29.1484   30.7219   -1.4960 H         1 UNK         0.0949 
    112 H112       29.4234   27.6699   -1.3736 H         1 UNK         0.0806 
    113 H113       28.0084   28.5500   -1.9595 H         1 UNK         0.0806 
    114 H114       29.5309   28.6498   -2.8243 H         1 UNK         0.0806 
    115 H115       31.0246   29.0292    0.9314 H         1 UNK         0.3010 
    116 H116       33.6032   29.9274   -0.2867 H         1 UNK         0.0829 
    117 H117       33.4438   27.4718    0.1695 H         1 UNK         0.0813 
    118 H118       34.6288   28.2372    1.2091 H         1 UNK         0.0813 
    119 H119       33.0509   27.8054    1.8561 H         1 UNK         0.0813 
    120 H120       31.3753   31.3779    1.3644 H         1 UNK         0.3038 
    121 H121       31.1520   32.9577    2.8490 H         1 UNK         0.0769 
    122 H122       33.0242   34.4172    3.4492 H         1 UNK         0.0811 
    123 H123       33.1871   33.9518    1.7655 H         1 UNK         0.0811 
    124 H124       34.1993   33.1946    2.9956 H         1 UNK         0.0811 
    125 H125       31.3991   30.1317    3.7587 H         1 UNK         0.3204 
    126 H126       31.1699   28.9166    5.5815 H         1 UNK         0.0748 
    127 H127       30.1430   29.9620    7.5867 H         1 UNK         0.0771 
    128 H128       30.5166   31.5647    6.9713 H         1 UNK         0.0771 
    129 H129       29.3790   30.5290    6.1100 H         1 UNK         0.0771 
    130 H130       33.4550   28.4660    5.2855 H         1 UNK         0.2980 
    131 H131       35.6044   29.6067    6.4531 H         1 UNK         0.0545 
    132 H132       36.7443   29.5987    8.4381 H         1 UNK         0.3459 
    133 H133       36.1454   28.7961    9.8660 H         1 UNK         0.3459 
    134 H134       36.7805   27.4839    6.1596 H         1 UNK         0.0616 
    135 H135       35.2977   26.5786    6.1979 H         1 UNK         0.0616 
    136 H136       36.2338   25.3330    4.3256 H         1 UNK         0.0634 
    137 H137       36.3037   25.8508    2.6663 H         1 UNK         0.0634 
@<TRIPOS>BOND
     1    1    2 1    
     2    1   72 1    
     3    1   73 1    
     4    1   74 1    
     5    2    3 2    
     6    2    4 am   BACKBONE|DICT|INTERRES
     7    4    5 1    
     8    4   75 1    
     9    5    6 1    
    10    5   35 1    
    11    5   76 1    
    12    6    7 1    
    13    6   77 1    
    14    6   78 1    
    15    7    8 1    
    16    8    9 1    
    17    8   79 1    
    18    8   80 1    
    19    9   10 ar   
    20    9   14 ar   
    21   10   11 ar   
    22   10   81 1    
    23   11   12 ar   
    24   11   71 1    
    25   12   13 ar   
    26   12   82 1    
    27   13   14 ar   
    28   13   15 1    
    29   14   83 1    
    30   15   16 1    
    31   15   84 1    
    32   15   85 1    
    33   16   17 1    
    34   17   18 1    
    35   17   86 1    
    36   17   87 1    
    37   18   19 1    
    38   18   37 1    
    39   18   88 1    
    40   19   20 am   BACKBONE|DICT|INTERRES
    41   19   89 1    
    42   20   21 2    
    43   20   22 1    
    44   22   23 1    
    45   22   24 1    
    46   22   90 1    
    47   23   91 1    
    48   23   92 1    
    49   23   93 1    
    50   24   25 am   BACKBONE|DICT|INTERRES
    51   24   94 1    
    52   25   26 2    
    53   25   27 1    
    54   27   28 1    
    55   27   29 1    
    56   27   95 1    
    57   28   96 1    
    58   28   97 1    
    59   28   98 1    
    60   29   30 am   BACKBONE|DICT|INTERRES
    61   29   99 1    
    62   30   31 2    
    63   30   32 1    
    64   32   33 1    
    65   32   34 1    
    66   32  100 1    
    67   33  101 1    
    68   33  102 1    
    69   33  103 1    
    70   34   35 am   BACKBONE|DICT|INTERRES
    71   34  104 1    
    72   35   36 2    
    73   37   38 2    
    74   37   39 am   BACKBONE|DICT|INTERRES
    75   39   40 1    
    76   39  105 1    
    77   40   41 1    
    78   40   42 1    
    79   40  106 1    
    80   41  107 1    
    81   41  108 1    
    82   41  109 1    
    83   42   43 2    
    84   42   44 am   BACKBONE|DICT|INTERRES
    85   44   45 1    
    86   44  110 1    
    87   45   46 1    
    88   45   47 1    
    89   45  111 1    
    90   46  112 1    
    91   46  113 1    
    92   46  114 1    
    93   47   48 2    
    94   47   49 am   BACKBONE|DICT|INTERRES
    95   49   50 1    
    96   49  115 1    
    97   50   51 1    
    98   50   52 1    
    99   50  116 1    
   100   51  117 1    
   101   51  118 1    
   102   51  119 1    
   103   52   53 2    
   104   52   54 am   BACKBONE|DICT|INTERRES
   105   54   55 1    
   106   54  120 1    
   107   55   56 1    
   108   55   57 1    
   109   55  121 1    
   110   56  122 1    
   111   56  123 1    
   112   56  124 1    
   113   57   58 2    
   114   57   59 am   BACKBONE|DICT|INTERRES
   115   59   60 1    
   116   59  125 1    
   117   60   61 1    
   118   60   62 1    
   119   60  126 1    
   120   61  127 1    
   121   61  128 1    
   122   61  129 1    
   123   62   63 2    
   124   62   64 am   BACKBONE|DICT|INTERRES
   125   64   65 1    
   126   64  130 1    
   127   65   66 1    
   128   65   69 1    
   129   65  131 1    
   130   66   67 am   BACKBONE|DICT|INTERRES
   131   66   68 2    
   132   67  132 1    
   133   67  133 1    
   134   69   70 1    
   135   69  134 1    
   136   69  135 1    
   137   70   71 1    
   138   71  136 1    
   139   71  137 1    
@<TRIPOS>SUBSTRUCTURE
     1 UNK         1 GROUP             0       ****    0 ROOT    
