@<TRIPOS>MOLECULE
3R136
137   139    1
SMALL
USER_CHARGES


@<TRIPOS>ATOM
      1 CA         30.6530   25.8838    4.2191 C.3       0 UNK        -0.1979 
      2 C          29.3015   25.2719    3.8960 C.2       0 UNK         0.4864 
      3 O          28.3149   25.5544    4.5776 O.2       0 UNK        -0.5359 
      4 N          29.2546   24.4223    2.8633 N.am      1 UNK        -0.4318 
      5 CA         28.0600   23.7069    2.4061 C.3       1 UNK         0.0824 
      6 C6         28.4198   22.4857    1.5181 C.3       12 UNK        -0.0944 
      7 S7         29.5946   21.3353    2.3085 S.3       12 UNK        -0.2672 
      8 C8         30.9953   21.3882    1.1440 C.3       12 UNK         0.0333 
      9 C9         31.8450   22.6417    1.3110 C.ar      12 UNK        -0.0807 
     10 C10        32.8894   22.6516    2.2405 C.ar      12 UNK        -0.0894 
     11 C11        33.7219   23.7673    2.3641 C.ar      12 UNK        -0.0804 
     12 C12        33.4856   24.8921    1.5683 C.ar      12 UNK        -0.0824 
     13 C13        32.4448   24.8971    0.6344 C.ar      12 UNK        -0.0762 
     14 C14        31.6309   23.7661    0.5048 C.ar      12 UNK        -0.0782 
     15 C15        32.2478   26.1072   -0.2690 C.3       12 UNK         0.0230 
     16 S16        31.2223   27.3885    0.5172 S.3       12 UNK        -0.2608 
     17 C17        29.5461   26.8120    0.0926 C.3       12 UNK        -0.0989 
     18 CA         28.9329   27.5651   -1.1203 C.3       5 UNK         0.0716 
     19 N          27.8499   26.8149   -1.7483 N.am      5 UNK        -0.4135 
     20 C          27.9950   25.7663   -2.5645 C.2       4 UNK         0.5031 
     21 O          29.0916   25.3093   -2.8934 O.2       4 UNK        -0.5229 
     22 CA         26.6996   25.1157   -3.0818 C.3       4 UNK         0.0329 
     23 CB         26.9410   23.7637   -3.7840 C.3       4 UNK        -0.2001 
     24 N          25.7464   24.9437   -1.9848 N.am      4 UNK        -0.4303 
     25 C          24.4116   24.9333   -2.1060 C.2       3 UNK         0.5044 
     26 O          23.8251   25.0794   -3.1794 O.2       3 UNK        -0.5152 
     27 CA         23.5753   24.7170   -0.8259 C.3       3 UNK         0.0319 
     28 CB         23.1484   23.2447   -0.7106 C.3       3 UNK        -0.2001 
     29 N          24.2654   25.1103    0.4057 N.am      3 UNK        -0.4354 
     30 C          24.5910   26.3694    0.7281 C.2       2 UNK         0.4964 
     31 O          24.2137   27.3479    0.0834 O.2       2 UNK        -0.5047 
     32 CA         25.5033   26.5915    1.9538 C.3       2 UNK         0.0288 
     33 CB         24.6754   27.1076    3.1427 C.3       2 UNK        -0.2113 
     34 N          26.3215   25.4538    2.4093 N.am      2 UNK        -0.4145 
     35 C          27.1204   24.6772    1.6629 C.2       1 UNK         0.5006 
     36 O          27.1645   24.7301    0.4351 O.2       1 UNK        -0.5103 
     37 C          28.3637   28.9278   -0.7024 C.2       5 UNK         0.5055 
     38 O          27.1519   29.0474   -0.5029 O.2       5 UNK        -0.5220 
     39 N          29.2510   29.9155   -0.5303 N.am      6 UNK        -0.4450 
     40 CA         28.9272   31.2078    0.0799 C.3       6 UNK         0.0367 
     41 CB         30.0780   32.1960   -0.1697 C.3       6 UNK        -0.1929 
     42 C          28.6483   31.0858    1.5888 C.2       6 UNK         0.5070 
     43 O          27.8568   31.8660    2.1185 O.2       6 UNK        -0.5237 
     44 N          29.3094   30.1165    2.2434 N.am      7 UNK        -0.4739 
     45 CA         29.2576   29.7428    3.6651 C.3       7 UNK         0.0276 
     46 CB         27.8580   29.2421    4.0650 C.3       7 UNK        -0.1927 
     47 C          29.7741   30.8189    4.6382 C.2       7 UNK         0.5013 
     48 O          30.5874   30.5008    5.5063 O.2       7 UNK        -0.5193 
     49 N          29.3219   32.0673    4.4719 N.am      8 UNK        -0.4253 
     50 CA         29.7475   33.2473    5.2236 C.3       8 UNK         0.0242 
     51 CB         28.9048   34.4571    4.7849 C.3       8 UNK        -0.2000 
     52 C          31.2499   33.5098    5.0290 C.2       8 UNK         0.4948 
     53 O          31.6598   33.9074    3.9366 O.2       8 UNK        -0.5275 
     54 N          32.0309   33.2361    6.0838 N.am      9 UNK        -0.4246 
     55 CA         33.4973   33.2904    6.1419 C.3       9 UNK         0.0261 
     56 CB         34.0039   34.7402    5.9772 C.3       9 UNK        -0.1959 
     57 C          34.2000   32.2987    5.1880 C.2       9 UNK         0.5033 
     58 O          35.3406   32.5494    4.7921 O.2       9 UNK        -0.5390 
     59 N          33.5324   31.1854    4.8552 N.am      10 UNK        -0.4215 
     60 CA         34.0781   30.0833    4.0631 C.3       10 UNK         0.0240 
     61 CB         33.1656   29.8335    2.8499 C.3       10 UNK        -0.1982 
     62 C          34.1541   28.8282    4.9406 C.2       10 UNK         0.4970 
     63 O          33.3599   28.6865    5.8731 O.2       10 UNK        -0.4916 
     64 N          35.0900   27.9295    4.6080 N.am      11 UNK        -0.4279 
     65 CA         35.3006   26.6359    5.2836 C.3       11 UNK         0.1003 
     66 C          35.8372   26.7418    6.7472 C.2       11 UNK         0.5709 
     67 N          36.4251   27.8631    7.1488 N.am      11 UNK        -0.7358 
     68 O          35.7519   25.7948    7.5251 O.2       11 UNK        -0.4999 
     69 C69        34.0601   25.7068    5.1255 C.3       12 UNK        -0.0954 
     70 S70        34.4617   23.9312    5.0523 S.3       12 UNK        -0.2268 
     71 C71        34.9197   23.7251    3.3036 C.3       12 UNK         0.0203 
     72 H72        30.5391   26.7978    4.8014 H         1 UNK         0.0888 
     73 H73        31.2396   25.1779    4.8057 H         1 UNK         0.0888 
     74 H74        31.2051   26.1239    3.3109 H         1 UNK         0.0888 
     75 H75        30.1038   24.2118    2.3566 H         1 UNK         0.3017 
     76 H76        27.5288   23.3313    3.2835 H         1 UNK         0.0873 
     77 H77        28.8276   22.8062    0.5585 H         1 UNK         0.0745 
     78 H78        27.5165   21.9214    1.2790 H         1 UNK         0.0745 
     79 H79        30.6304   21.3029    0.1192 H         1 UNK         0.0705 
     80 H80        31.6151   20.5058    1.3113 H         1 UNK         0.0705 
     81 H81        33.0738   21.7777    2.8508 H         1 UNK         0.1334 
     82 H82        34.1301   25.7565    1.6545 H         1 UNK         0.1417 
     83 H83        30.8469   23.7531   -0.2402 H         1 UNK         0.1562 
     84 H84        31.8076   25.8114   -1.2231 H         1 UNK         0.0748 
     85 H85        33.2189   26.5418   -0.5109 H         1 UNK         0.0748 
     86 H86        28.9122   26.9062    0.9761 H         1 UNK         0.0940 
     87 H87        29.5934   25.7434   -0.1137 H         1 UNK         0.0940 
     88 H88        29.7010   27.7337   -1.8786 H         1 UNK         0.0703 
     89 H89        26.9261   27.1697   -1.5308 H         1 UNK         0.3081 
     90 H90        26.2803   25.8116   -3.8113 H         1 UNK         0.0719 
     91 H91        27.6303   23.8735   -4.6222 H         1 UNK         0.0809 
     92 H92        27.3691   23.0302   -3.0998 H         1 UNK         0.0809 
     93 H93        26.0145   23.3501   -4.1825 H         1 UNK         0.0809 
     94 H94        26.1646   24.8324   -1.0604 H         1 UNK         0.2990 
     95 H95        22.6746   25.3278   -0.9170 H         1 UNK         0.0690 
     96 H96        22.4906   23.0871    0.1444 H         1 UNK         0.0788 
     97 H97        24.0085   22.5826   -0.6015 H         1 UNK         0.0788 
     98 H98        22.6027   22.9259   -1.5999 H         1 UNK         0.0788 
     99 H99        24.6187   24.3652    0.9875 H         1 UNK         0.2993 
    100 H100       26.2047   27.3764    1.6637 H         1 UNK         0.0949 
    101 H101       24.0974   27.9905    2.8653 H         1 UNK         0.0767 
    102 H102       23.9713   26.3539    3.4975 H         1 UNK         0.0767 
    103 H103       25.3122   27.3921    3.9806 H         1 UNK         0.0767 
    104 H104       26.4340   25.3731    3.4130 H         1 UNK         0.3013 
    105 H105       30.2262   29.7306   -0.7217 H         1 UNK         0.3121 
    106 H106       28.0255   31.6002   -0.3958 H         1 UNK         0.0774 
    107 H107       29.8509   33.1732    0.2590 H         1 UNK         0.0815 
    108 H108       31.0117   31.8545    0.2793 H         1 UNK         0.0815 
    109 H109       30.2506   32.3440   -1.2359 H         1 UNK         0.0815 
    110 H110       29.9492   29.5632    1.6904 H         1 UNK         0.2987 
    111 H111       29.9354   28.8946    3.7658 H         1 UNK         0.0949 
    112 H112       27.8451   28.9103    5.1041 H         1 UNK         0.0806 
    113 H113       27.5608   28.3907    3.4540 H         1 UNK         0.0806 
    114 H114       27.0970   30.0157    3.9598 H         1 UNK         0.0806 
    115 H115       28.6840   32.2186    3.6927 H         1 UNK         0.3010 
    116 H116       29.5491   33.0614    6.2813 H         1 UNK         0.0829 
    117 H117       29.0168   34.6623    3.7192 H         1 UNK         0.0813 
    118 H118       27.8452   34.2954    4.9840 H         1 UNK         0.0813 
    119 H119       29.2032   35.3569    5.3243 H         1 UNK         0.0813 
    120 H120       31.5826   32.8767    6.9162 H         1 UNK         0.3038 
    121 H121       33.7665   32.9663    7.1483 H         1 UNK         0.0769 
    122 H122       35.0737   34.8072    6.1785 H         1 UNK         0.0811 
    123 H123       33.5038   35.4172    6.6696 H         1 UNK         0.0811 
    124 H124       33.8414   35.1136    4.9657 H         1 UNK         0.0811 
    125 H125       32.6204   31.0116    5.2684 H         1 UNK         0.3204 
    126 H126       35.0813   30.3225    3.7042 H         1 UNK         0.0748 
    127 H127       33.5811   29.0642    2.1975 H         1 UNK         0.0771 
    128 H128       32.1755   29.4972    3.1541 H         1 UNK         0.0771 
    129 H129       33.0435   30.7365    2.2513 H         1 UNK         0.0771 
    130 H130       35.7141   28.1297    3.8397 H         1 UNK         0.2980 
    131 H131       36.1232   26.1817    4.7312 H         1 UNK         0.0545 
    132 H132       36.5160   28.6475    6.5239 H         1 UNK         0.3459 
    133 H133       36.7782   27.9232    8.0908 H         1 UNK         0.3459 
    134 H134       33.3496   25.8718    5.9372 H         1 UNK         0.0616 
    135 H135       33.5215   25.9546    4.2114 H         1 UNK         0.0616 
    136 H136       35.6542   24.4829    3.0277 H         1 UNK         0.0634 
    137 H137       35.4248   22.7647    3.1915 H         1 UNK         0.0634 
@<TRIPOS>BOND
     1    1    2 1    
     2    1   72 1    
     3    1   73 1    
     4    1   74 1    
     5    2    3 2    
     6    2    4 am   BACKBONE|DICT|INTERRES
     7    4    5 1    
     8    4   75 1    
     9    5    6 1    
    10    5   35 1    
    11    5   76 1    
    12    6    7 1    
    13    6   77 1    
    14    6   78 1    
    15    7    8 1    
    16    8    9 1    
    17    8   79 1    
    18    8   80 1    
    19    9   10 ar   
    20    9   14 ar   
    21   10   11 ar   
    22   10   81 1    
    23   11   12 ar   
    24   11   71 1    
    25   12   13 ar   
    26   12   82 1    
    27   13   14 ar   
    28   13   15 1    
    29   14   83 1    
    30   15   16 1    
    31   15   84 1    
    32   15   85 1    
    33   16   17 1    
    34   17   18 1    
    35   17   86 1    
    36   17   87 1    
    37   18   19 1    
    38   18   37 1    
    39   18   88 1    
    40   19   20 am   BACKBONE|DICT|INTERRES
    41   19   89 1    
    42   20   21 2    
    43   20   22 1    
    44   22   23 1    
    45   22   24 1    
    46   22   90 1    
    47   23   91 1    
    48   23   92 1    
    49   23   93 1    
    50   24   25 am   BACKBONE|DICT|INTERRES
    51   24   94 1    
    52   25   26 2    
    53   25   27 1    
    54   27   28 1    
    55   27   29 1    
    56   27   95 1    
    57   28   96 1    
    58   28   97 1    
    59   28   98 1    
    60   29   30 am   BACKBONE|DICT|INTERRES
    61   29   99 1    
    62   30   31 2    
    63   30   32 1    
    64   32   33 1    
    65   32   34 1    
    66   32  100 1    
    67   33  101 1    
    68   33  102 1    
    69   33  103 1    
    70   34   35 am   BACKBONE|DICT|INTERRES
    71   34  104 1    
    72   35   36 2    
    73   37   38 2    
    74   37   39 am   BACKBONE|DICT|INTERRES
    75   39   40 1    
    76   39  105 1    
    77   40   41 1    
    78   40   42 1    
    79   40  106 1    
    80   41  107 1    
    81   41  108 1    
    82   41  109 1    
    83   42   43 2    
    84   42   44 am   BACKBONE|DICT|INTERRES
    85   44   45 1    
    86   44  110 1    
    87   45   46 1    
    88   45   47 1    
    89   45  111 1    
    90   46  112 1    
    91   46  113 1    
    92   46  114 1    
    93   47   48 2    
    94   47   49 am   BACKBONE|DICT|INTERRES
    95   49   50 1    
    96   49  115 1    
    97   50   51 1    
    98   50   52 1    
    99   50  116 1    
   100   51  117 1    
   101   51  118 1    
   102   51  119 1    
   103   52   53 2    
   104   52   54 am   BACKBONE|DICT|INTERRES
   105   54   55 1    
   106   54  120 1    
   107   55   56 1    
   108   55   57 1    
   109   55  121 1    
   110   56  122 1    
   111   56  123 1    
   112   56  124 1    
   113   57   58 2    
   114   57   59 am   BACKBONE|DICT|INTERRES
   115   59   60 1    
   116   59  125 1    
   117   60   61 1    
   118   60   62 1    
   119   60  126 1    
   120   61  127 1    
   121   61  128 1    
   122   61  129 1    
   123   62   63 2    
   124   62   64 am   BACKBONE|DICT|INTERRES
   125   64   65 1    
   126   64  130 1    
   127   65   66 1    
   128   65   69 1    
   129   65  131 1    
   130   66   67 am   BACKBONE|DICT|INTERRES
   131   66   68 2    
   132   67  132 1    
   133   67  133 1    
   134   69   70 1    
   135   69  134 1    
   136   69  135 1    
   137   70   71 1    
   138   71  136 1    
   139   71  137 1    
@<TRIPOS>SUBSTRUCTURE
     1 UNK         1 GROUP             0       ****    0 ROOT    
