@<TRIPOS>MOLECULE
3R136
137   139    1
SMALL
USER_CHARGES


@<TRIPOS>ATOM
      1 CA         24.9301   20.3365    2.2110 C.3       0 UNK        -0.1979 
      2 C          26.3654   20.7145    1.8778 C.2       0 UNK         0.4864 
      3 O          27.2430   20.5926    2.7341 O.2       0 UNK        -0.5359 
      4 N          26.6080   21.1849    0.6453 N.am      1 UNK        -0.4318 
      5 CA         27.8984   21.6159    0.0857 C.3       1 UNK         0.0824 
      6 C6         28.9892   20.5087    0.1246 C.3       12 UNK        -0.0944 
      7 S7         30.1653   20.6367   -1.2618 S.3       12 UNK        -0.2672 
      8 C8         31.7709   20.7216   -0.3990 C.3       12 UNK         0.0333 
      9 C9         32.0130   22.0516    0.3073 C.ar      12 UNK        -0.0807 
     10 C10        32.4266   22.0753    1.6423 C.ar      12 UNK        -0.0894 
     11 C11        32.6971   23.2852    2.2904 C.ar      12 UNK        -0.0804 
     12 C12        32.5526   24.4818    1.5755 C.ar      12 UNK        -0.0824 
     13 C13        32.1166   24.4814    0.2450 C.ar      12 UNK        -0.0762 
     14 C14        31.8624   23.2584   -0.3809 C.ar      12 UNK        -0.0782 
     15 C15        31.8660   25.7622   -0.5522 C.3       12 UNK         0.0230 
     16 S16        32.7021   27.2726    0.0486 S.3       12 UNK        -0.2608 
     17 C17        31.5999   27.8805    1.3723 C.3       12 UNK        -0.0989 
     18 CA         30.4736   28.7888    0.8186 C.3       5 UNK         0.0716 
     19 N          29.3739   28.0112    0.2488 N.am      5 UNK        -0.4135 
     20 C          28.5588   28.4326   -0.7260 C.2       4 UNK         0.5031 
     21 O          28.6755   29.5139   -1.3023 O.2       4 UNK        -0.5229 
     22 CA         27.4073   27.4900   -1.1188 C.3       4 UNK         0.0329 
     23 CB         27.8395   26.5562   -2.2606 C.3       4 UNK        -0.2001 
     24 N          26.9174   26.6900    0.0077 N.am      4 UNK        -0.4303 
     25 C          26.2198   27.1944    1.0379 C.2       3 UNK         0.5044 
     26 O          25.8826   28.3753    1.1200 O.2       3 UNK        -0.5152 
     27 CA         25.8647   26.2344    2.1896 C.3       3 UNK         0.0319 
     28 CB         24.4931   25.5871    1.9420 C.3       3 UNK        -0.2001 
     29 N          26.8569   25.1814    2.4247 N.am      3 UNK        -0.4354 
     30 C          28.1584   25.3734    2.6852 C.2       2 UNK         0.4964 
     31 O          28.6815   26.4827    2.7823 O.2       2 UNK        -0.5047 
     32 CA         29.0436   24.1241    2.7955 C.3       2 UNK         0.0288 
     33 CB         29.2140   23.7068    4.2633 C.3       2 UNK        -0.2113 
     34 N          28.5732   22.9786    2.0126 N.am      2 UNK        -0.4145 
     35 C          28.3826   22.9520    0.6858 C.2       1 UNK         0.5006 
     36 O          28.5202   23.9355   -0.0450 O.2       1 UNK        -0.5103 
     37 C          29.9286   29.7407    1.8965 C.2       5 UNK         0.5055 
     38 O          30.2549   30.9248    1.8709 O.2       5 UNK        -0.5220 
     39 N          29.0716   29.2311    2.7947 N.am      6 UNK        -0.4450 
     40 CA         28.4582   29.9671    3.9083 C.3       6 UNK         0.0367 
     41 CB         27.6950   28.9814    4.8059 C.3       6 UNK        -0.1929 
     42 C          27.5576   31.1502    3.5020 C.2       6 UNK         0.5070 
     43 O          27.2464   31.9848    4.3516 O.2       6 UNK        -0.5237 
     44 N          27.1836   31.2316    2.2180 N.am      7 UNK        -0.4739 
     45 CA         26.5755   32.4089    1.5925 C.3       7 UNK         0.0276 
     46 CB         26.0848   32.0220    0.1880 C.3       7 UNK        -0.1927 
     47 C          27.5261   33.6246    1.5173 C.2       7 UNK         0.5013 
     48 O          27.0446   34.7505    1.3828 O.2       7 UNK        -0.5193 
     49 N          28.8406   33.3841    1.6051 N.am      8 UNK        -0.4253 
     50 CA         29.9026   34.3824    1.6609 C.3       8 UNK         0.0242 
     51 CB         30.5783   34.4843    0.2772 C.3       8 UNK        -0.2000 
     52 C          30.8477   33.9922    2.8115 C.2       8 UNK         0.4948 
     53 O          30.3901   33.8914    3.9517 O.2       8 UNK        -0.5275 
     54 N          32.1372   33.7802    2.5172 N.am      9 UNK        -0.4246 
     55 CA         33.1367   33.2979    3.4699 C.3       9 UNK         0.0261 
     56 CB         34.5408   33.6835    2.9718 C.3       9 UNK        -0.1959 
     57 C          33.0017   31.7765    3.6497 C.2       9 UNK         0.5033 
     58 O          33.3709   31.0255    2.7437 O.2       9 UNK        -0.5390 
     59 N          32.4676   31.3559    4.8041 N.am      10 UNK        -0.4215 
     60 CA         32.2745   29.9528    5.1810 C.3       10 UNK         0.0240 
     61 CB         31.4873   29.8909    6.5013 C.3       10 UNK        -0.1982 
     62 C          33.6028   29.1891    5.3248 C.2       10 UNK         0.4970 
     63 O          34.6076   29.7755    5.7362 O.2       10 UNK        -0.4916 
     64 N          33.5655   27.8881    5.0176 N.am      11 UNK        -0.4279 
     65 CA         34.6800   26.9503    5.2090 C.3       11 UNK         0.1003 
     66 C          34.9861   26.6527    6.7056 C.2       11 UNK         0.5709 
     67 N          36.1913   26.1883    7.0080 N.am      11 UNK        -0.7358 
     68 O          34.1444   26.8150    7.5880 O.2       11 UNK        -0.4999 
     69 C69        34.4813   25.6562    4.3743 C.3       12 UNK        -0.0954 
     70 S70        32.9064   24.7867    4.7039 S.3       12 UNK        -0.2268 
     71 C71        33.1440   23.2428    3.7547 C.3       12 UNK         0.0203 
     72 H72        24.2585   20.4973    1.3679 H         1 UNK         0.0888 
     73 H73        24.8759   19.2850    2.4917 H         1 UNK         0.0888 
     74 H74        24.5706   20.9321    3.0497 H         1 UNK         0.0888 
     75 H75        25.8288   21.2739    0.0071 H         1 UNK         0.3017 
     76 H76        27.6744   21.8209   -0.9628 H         1 UNK         0.0873 
     77 H77        28.5224   19.5263    0.0378 H         1 UNK         0.0745 
     78 H78        29.5191   20.4949    1.0791 H         1 UNK         0.0745 
     79 H79        32.5651   20.5733   -1.1318 H         1 UNK         0.0705 
     80 H80        31.8415   19.8868    0.3001 H         1 UNK         0.0705 
     81 H81        32.5471   21.1448    2.1805 H         1 UNK         0.1334 
     82 H82        32.7571   25.4193    2.0627 H         1 UNK         0.1417 
     83 H83        31.5308   23.2437   -1.4105 H         1 UNK         0.1562 
     84 H84        30.7917   25.9293   -0.6114 H         1 UNK         0.0748 
     85 H85        32.2006   25.6043   -1.5786 H         1 UNK         0.0748 
     86 H86        32.2385   28.4382    2.0611 H         1 UNK         0.0940 
     87 H87        31.1904   27.0497    1.9480 H         1 UNK         0.0940 
     88 H88        30.9012   29.4204    0.0361 H         1 UNK         0.0703 
     89 H89        29.1630   27.1342    0.7048 H         1 UNK         0.3081 
     90 H90        26.5833   28.1095   -1.4799 H         1 UNK         0.0719 
     91 H91        27.0127   25.9291   -2.5945 H         1 UNK         0.0809 
     92 H92        28.1808   27.1285   -3.1243 H         1 UNK         0.0809 
     93 H93        28.6571   25.8995   -1.9613 H         1 UNK         0.0809 
     94 H94        27.1836   25.7122    0.0242 H         1 UNK         0.2990 
     95 H95        25.7987   26.8280    3.1022 H         1 UNK         0.0690 
     96 H96        23.7257   26.3470    1.7862 H         1 UNK         0.0788 
     97 H97        24.1785   24.9832    2.7935 H         1 UNK         0.0788 
     98 H98        24.5015   24.9465    1.0591 H         1 UNK         0.0788 
     99 H99        26.5275   24.2296    2.3623 H         1 UNK         0.2993 
    100 H100       30.0203   24.4023    2.4038 H         1 UNK         0.0949 
    101 H101       28.2714   23.3775    4.7023 H         1 UNK         0.0767 
    102 H102       29.9335   22.8935    4.3604 H         1 UNK         0.0767 
    103 H103       29.5859   24.5377    4.8649 H         1 UNK         0.0767 
    104 H104       28.3530   22.1259    2.5221 H         1 UNK         0.3013 
    105 H105       28.8645   28.2331    2.7550 H         1 UNK         0.3121 
    106 H106       29.2746   30.3963    4.4898 H         1 UNK         0.0774 
    107 H107       26.8544   28.5326    4.2781 H         1 UNK         0.0815 
    108 H108       27.2955   29.4839    5.6877 H         1 UNK         0.0815 
    109 H109       28.3422   28.1773    5.1569 H         1 UNK         0.0815 
    110 H110       27.4315   30.4683    1.6040 H         1 UNK         0.2987 
    111 H111       25.7128   32.7045    2.1933 H         1 UNK         0.0949 
    112 H112       26.9093   31.7098   -0.4547 H         1 UNK         0.0806 
    113 H113       25.3655   31.2036    0.2303 H         1 UNK         0.0806 
    114 H114       25.5906   32.8636   -0.2994 H         1 UNK         0.0806 
    115 H115       29.1560   32.4259    1.7487 H         1 UNK         0.3010 
    116 H116       29.4870   35.3588    1.9182 H         1 UNK         0.0829 
    117 H117       29.8581   34.7857   -0.4838 H         1 UNK         0.0813 
    118 H118       31.3717   35.2329    0.2748 H         1 UNK         0.0813 
    119 H119       31.0067   33.5318   -0.0387 H         1 UNK         0.0813 
    120 H120       32.4241   33.8305    1.5507 H         1 UNK         0.3038 
    121 H121       32.9799   33.7888    4.4331 H         1 UNK         0.0769 
    122 H122       34.7584   33.2534    1.9932 H         1 UNK         0.0811 
    123 H123       35.3079   33.3277    3.6609 H         1 UNK         0.0811 
    124 H124       34.6510   34.7653    2.8945 H         1 UNK         0.0811 
    125 H125       32.1910   32.0482    5.4852 H         1 UNK         0.3204 
    126 H126       31.6819   29.4799    4.3959 H         1 UNK         0.0748 
    127 H127       32.0577   30.3162    7.3285 H         1 UNK         0.0771 
    128 H128       30.5432   30.4312    6.4381 H         1 UNK         0.0771 
    129 H129       31.2518   28.8594    6.7674 H         1 UNK         0.0771 
    130 H130       32.6898   27.4643    4.7513 H         1 UNK         0.2980 
    131 H131       35.5690   27.4460    4.8135 H         1 UNK         0.0545 
    132 H132       36.4073   25.9803    7.9705 H         1 UNK         0.3459 
    133 H133       36.8902   26.0438    6.2960 H         1 UNK         0.3459 
    134 H134       34.5281   25.9065    3.3145 H         1 UNK         0.0616 
    135 H135       35.3078   24.9639    4.5442 H         1 UNK         0.0616 
    136 H136       32.5805   22.4634    4.2698 H         1 UNK         0.0634 
    137 H137       34.1910   22.9414    3.8003 H         1 UNK         0.0634 
@<TRIPOS>BOND
     1    1    2 1    
     2    1   72 1    
     3    1   73 1    
     4    1   74 1    
     5    2    3 2    
     6    2    4 am   BACKBONE|DICT|INTERRES
     7    4    5 1    
     8    4   75 1    
     9    5    6 1    
    10    5   35 1    
    11    5   76 1    
    12    6    7 1    
    13    6   77 1    
    14    6   78 1    
    15    7    8 1    
    16    8    9 1    
    17    8   79 1    
    18    8   80 1    
    19    9   10 ar   
    20    9   14 ar   
    21   10   11 ar   
    22   10   81 1    
    23   11   12 ar   
    24   11   71 1    
    25   12   13 ar   
    26   12   82 1    
    27   13   14 ar   
    28   13   15 1    
    29   14   83 1    
    30   15   16 1    
    31   15   84 1    
    32   15   85 1    
    33   16   17 1    
    34   17   18 1    
    35   17   86 1    
    36   17   87 1    
    37   18   19 1    
    38   18   37 1    
    39   18   88 1    
    40   19   20 am   BACKBONE|DICT|INTERRES
    41   19   89 1    
    42   20   21 2    
    43   20   22 1    
    44   22   23 1    
    45   22   24 1    
    46   22   90 1    
    47   23   91 1    
    48   23   92 1    
    49   23   93 1    
    50   24   25 am   BACKBONE|DICT|INTERRES
    51   24   94 1    
    52   25   26 2    
    53   25   27 1    
    54   27   28 1    
    55   27   29 1    
    56   27   95 1    
    57   28   96 1    
    58   28   97 1    
    59   28   98 1    
    60   29   30 am   BACKBONE|DICT|INTERRES
    61   29   99 1    
    62   30   31 2    
    63   30   32 1    
    64   32   33 1    
    65   32   34 1    
    66   32  100 1    
    67   33  101 1    
    68   33  102 1    
    69   33  103 1    
    70   34   35 am   BACKBONE|DICT|INTERRES
    71   34  104 1    
    72   35   36 2    
    73   37   38 2    
    74   37   39 am   BACKBONE|DICT|INTERRES
    75   39   40 1    
    76   39  105 1    
    77   40   41 1    
    78   40   42 1    
    79   40  106 1    
    80   41  107 1    
    81   41  108 1    
    82   41  109 1    
    83   42   43 2    
    84   42   44 am   BACKBONE|DICT|INTERRES
    85   44   45 1    
    86   44  110 1    
    87   45   46 1    
    88   45   47 1    
    89   45  111 1    
    90   46  112 1    
    91   46  113 1    
    92   46  114 1    
    93   47   48 2    
    94   47   49 am   BACKBONE|DICT|INTERRES
    95   49   50 1    
    96   49  115 1    
    97   50   51 1    
    98   50   52 1    
    99   50  116 1    
   100   51  117 1    
   101   51  118 1    
   102   51  119 1    
   103   52   53 2    
   104   52   54 am   BACKBONE|DICT|INTERRES
   105   54   55 1    
   106   54  120 1    
   107   55   56 1    
   108   55   57 1    
   109   55  121 1    
   110   56  122 1    
   111   56  123 1    
   112   56  124 1    
   113   57   58 2    
   114   57   59 am   BACKBONE|DICT|INTERRES
   115   59   60 1    
   116   59  125 1    
   117   60   61 1    
   118   60   62 1    
   119   60  126 1    
   120   61  127 1    
   121   61  128 1    
   122   61  129 1    
   123   62   63 2    
   124   62   64 am   BACKBONE|DICT|INTERRES
   125   64   65 1    
   126   64  130 1    
   127   65   66 1    
   128   65   69 1    
   129   65  131 1    
   130   66   67 am   BACKBONE|DICT|INTERRES
   131   66   68 2    
   132   67  132 1    
   133   67  133 1    
   134   69   70 1    
   135   69  134 1    
   136   69  135 1    
   137   70   71 1    
   138   71  136 1    
   139   71  137 1    
@<TRIPOS>SUBSTRUCTURE
     1 UNK         1 GROUP             0       ****    0 ROOT    
