@<TRIPOS>MOLECULE
3R136
137   139    1
SMALL
USER_CHARGES


@<TRIPOS>ATOM
      1 CA         25.7879   21.9637    1.6313 C.3       0 UNK        -0.1979 
      2 C          27.1514   22.1714    0.9897 C.2       0 UNK         0.4864 
      3 O          27.6322   23.3040    0.9441 O.2       0 UNK        -0.5359 
      4 N          27.7473   21.0777    0.4886 N.am      1 UNK        -0.4318 
      5 CA         29.0115   20.9813   -0.2597 C.3       1 UNK         0.0824 
      6 C6         30.2912   20.9658    0.6344 C.3       12 UNK        -0.0944 
      7 S7         30.6706   22.5165    1.5302 S.3       12 UNK        -0.2672 
      8 C8         30.4971   21.9816    3.2646 C.3       12 UNK         0.0333 
      9 C9         29.8980   23.0718    4.1398 C.ar      12 UNK        -0.0807 
     10 C10        30.7101   24.0578    4.7065 C.ar      12 UNK        -0.0894 
     11 C11        30.1571   25.0420    5.5333 C.ar      12 UNK        -0.0804 
     12 C12        28.7853   25.0282    5.8027 C.ar      12 UNK        -0.0824 
     13 C13        27.9626   24.0526    5.2325 C.ar      12 UNK        -0.0762 
     14 C14        28.5262   23.0762    4.4066 C.ar      12 UNK        -0.0782 
     15 C15        26.4655   24.0467    5.5036 C.3       12 UNK         0.0230 
     16 S16        25.5174   24.6021    4.0517 S.3       12 UNK        -0.2608 
     17 C17        25.8474   26.3960    4.0408 C.3       12 UNK        -0.0989 
     18 CA         27.0701   26.8140    3.1738 C.3       5 UNK         0.0716 
     19 N          27.0387   26.2770    1.8078 N.am      5 UNK        -0.4135 
     20 C          26.2057   26.6184    0.8151 C.2       4 UNK         0.5031 
     21 O          25.2838   27.4277    0.9364 O.2       4 UNK        -0.5229 
     22 CA         26.4867   25.9618   -0.5554 C.3       4 UNK         0.0329 
     23 CB         25.8337   26.7226   -1.7289 C.3       4 UNK        -0.2001 
     24 N          27.9218   25.7526   -0.8099 N.am      4 UNK        -0.4303 
     25 C          28.8810   26.6930   -0.8141 C.2       3 UNK         0.5044 
     26 O          28.6604   27.8877   -0.6253 O.2       3 UNK        -0.5152 
     27 CA         30.3407   26.2451   -0.9992 C.3       3 UNK         0.0319 
     28 CB         31.1000   26.3525    0.3315 C.3       3 UNK        -0.2001 
     29 N          30.4791   24.8831   -1.5105 N.am      3 UNK        -0.4354 
     30 C          30.3523   24.5363   -2.7990 C.2       2 UNK         0.4964 
     31 O          30.1001   25.3337   -3.7027 O.2       2 UNK        -0.5047 
     32 CA         30.5484   23.0487   -3.1414 C.3       2 UNK         0.0288 
     33 CB         31.9725   22.8006   -3.6655 C.3       2 UNK        -0.2113 
     34 N          30.2950   22.1621   -2.0020 N.am      2 UNK        -0.4145 
     35 C          29.0791   21.9083   -1.4986 C.2       1 UNK         0.5006 
     36 O          28.0424   22.3475   -2.0050 O.2       1 UNK        -0.5103 
     37 C          27.3252   28.3411    3.2440 C.2       5 UNK         0.5055 
     38 O          26.8838   28.9820    4.2016 O.2       5 UNK        -0.5220 
     39 N          28.0205   28.9181    2.2504 N.am      6 UNK        -0.4450 
     40 CA         28.3443   30.3458    2.1897 C.3       6 UNK         0.0367 
     41 CB         28.7304   30.7260    0.7500 C.3       6 UNK        -0.1929 
     42 C          29.4427   30.7330    3.1956 C.2       6 UNK         0.5070 
     43 O          30.6067   30.8738    2.8180 O.2       6 UNK        -0.5237 
     44 N          29.0550   30.9251    4.4627 N.am      7 UNK        -0.4739 
     45 CA         29.9292   31.3610    5.5596 C.3       7 UNK         0.0276 
     46 CB         29.1269   31.4102    6.8683 C.3       7 UNK        -0.1927 
     47 C          30.6246   32.7067    5.2921 C.2       7 UNK         0.5013 
     48 O          31.7945   32.8639    5.6408 O.2       7 UNK        -0.5193 
     49 N          29.9217   33.6190    4.6057 N.am      8 UNK        -0.4253 
     50 CA         30.4415   34.9050    4.1299 C.3       8 UNK         0.0242 
     51 CB         29.2785   35.7396    3.5691 C.3       8 UNK        -0.2000 
     52 C          31.5660   34.7802    3.0821 C.2       8 UNK         0.4948 
     53 O          32.3548   35.7154    2.9427 O.2       8 UNK        -0.5275 
     54 N          31.6340   33.6391    2.3811 N.am      9 UNK        -0.4246 
     55 CA         32.6880   33.3002    1.4228 C.3       9 UNK         0.0261 
     56 CB         32.0445   32.6319    0.1944 C.3       9 UNK        -0.1959 
     57 C          33.7657   32.3885    2.0425 C.2       9 UNK         0.5033 
     58 O          34.6559   31.9530    1.3107 O.2       9 UNK        -0.5390 
     59 N          33.6745   32.1152    3.3557 N.am      10 UNK        -0.4215 
     60 CA         34.5300   31.2266    4.1485 C.3       10 UNK         0.0240 
     61 CB         35.9678   31.7818    4.2465 C.3       10 UNK        -0.1982 
     62 C          34.4715   29.7718    3.6471 C.2       10 UNK         0.4970 
     63 O          35.4780   29.2397    3.1734 O.2       10 UNK        -0.4916 
     64 N          33.2791   29.1690    3.7514 N.am      11 UNK        -0.4279 
     65 CA         32.9940   27.7624    3.4259 C.3       11 UNK         0.1003 
     66 C          33.9252   26.7258    4.1211 C.2       11 UNK         0.5709 
     67 N          34.1169   25.5628    3.5120 N.am      11 UNK        -0.7358 
     68 O          34.4398   26.9451    5.2166 O.2       11 UNK        -0.4999 
     69 C69        31.4942   27.4187    3.6439 C.3       12 UNK        -0.0954 
     70 S70        30.8574   27.7298    5.3290 S.3       12 UNK        -0.2268 
     71 C71        31.0423   26.1133    6.1504 C.3       12 UNK         0.0203 
     72 H72        25.1368   22.8097    1.4120 H         1 UNK         0.0888 
     73 H73        25.3008   21.0616    1.2622 H         1 UNK         0.0888 
     74 H74        25.8862   21.8818    2.7126 H         1 UNK         0.0888 
     75 H75        27.2502   20.2016    0.5640 H         1 UNK         0.3017 
     76 H76        28.9625   19.9870   -0.7064 H         1 UNK         0.0873 
     77 H77        31.1696   20.6996    0.0449 H         1 UNK         0.0745 
     78 H78        30.2016   20.1475    1.3493 H         1 UNK         0.0745 
     79 H79        29.8676   21.0932    3.3280 H         1 UNK         0.0705 
     80 H80        31.4758   21.6876    3.6465 H         1 UNK         0.0705 
     81 H81        31.7720   24.0585    4.5017 H         1 UNK         0.1334 
     82 H82        28.3586   25.7893    6.4418 H         1 UNK         0.1417 
     83 H83        27.8928   22.3194    3.9670 H         1 UNK         0.1562 
     84 H84        26.2182   24.6671    6.3664 H         1 UNK         0.0748 
     85 H85        26.1525   23.0333    5.7591 H         1 UNK         0.0748 
     86 H86        25.9759   26.7262    5.0733 H         1 UNK         0.0940 
     87 H87        24.9466   26.8954    3.6795 H         1 UNK         0.0940 
     88 H88        27.9599   26.3722    3.6187 H         1 UNK         0.0703 
     89 H89        27.6962   25.5308    1.6145 H         1 UNK         0.3081 
     90 H90        26.0352   24.9697   -0.5147 H         1 UNK         0.0719 
     91 H91        26.1960   27.7489   -1.7966 H         1 UNK         0.0809 
     92 H92        26.0361   26.2314   -2.6806 H         1 UNK         0.0809 
     93 H93        24.7503   26.7672   -1.6119 H         1 UNK         0.0809 
     94 H94        28.2025   24.7839   -0.9017 H         1 UNK         0.2990 
     95 H95        30.8043   26.9336   -1.7091 H         1 UNK         0.0690 
     96 H96        32.1471   26.0719    0.2170 H         1 UNK         0.0788 
     97 H97        30.6603   25.7128    1.0981 H         1 UNK         0.0788 
     98 H98        31.0804   27.3782    0.7009 H         1 UNK         0.0788 
     99 H99        30.6751   24.1607   -0.8316 H         1 UNK         0.2993 
    100 H100       29.8415   22.8005   -3.9366 H         1 UNK         0.0949 
    101 H101       32.1058   21.7645   -3.9777 H         1 UNK         0.0767 
    102 H102       32.1834   23.4278   -4.5330 H         1 UNK         0.0767 
    103 H103       32.7268   23.0250   -2.9102 H         1 UNK         0.0767 
    104 H104       31.1033   21.7600   -1.5494 H         1 UNK         0.3013 
    105 H105       28.3208   28.3573    1.4613 H         1 UNK         0.3121 
    106 H106       27.4467   30.9141    2.4433 H         1 UNK         0.0774 
    107 H107       28.9548   31.7905    0.6727 H         1 UNK         0.0815 
    108 H108       29.6121   30.1809    0.4110 H         1 UNK         0.0815 
    109 H109       27.9192   30.5145    0.0531 H         1 UNK         0.0815 
    110 H110       28.0987   30.6843    4.6991 H         1 UNK         0.2987 
    111 H111       30.7168   30.6148    5.6714 H         1 UNK         0.0949 
    112 H112       28.2985   32.1172    6.8099 H         1 UNK         0.0806 
    113 H113       28.7166   30.4309    7.1162 H         1 UNK         0.0806 
    114 H114       29.7596   31.7153    7.7031 H         1 UNK         0.0806 
    115 H115       28.9693   33.3920    4.3582 H         1 UNK         0.3010 
    116 H116       30.8592   35.4320    4.9905 H         1 UNK         0.0829 
    117 H117       28.5124   35.9132    4.3251 H         1 UNK         0.0813 
    118 H118       29.6263   36.7179    3.2339 H         1 UNK         0.0813 
    119 H119       28.8060   35.2523    2.7152 H         1 UNK         0.0813 
    120 H120       30.9795   32.8912    2.5849 H         1 UNK         0.3038 
    121 H121       33.1910   34.2087    1.0853 H         1 UNK         0.0769 
    122 H122       32.7825   32.4658   -0.5914 H         1 UNK         0.0811 
    123 H123       31.2552   33.2522   -0.2304 H         1 UNK         0.0811 
    124 H124       31.6148   31.6616    0.4434 H         1 UNK         0.0811 
    125 H125       32.9045   32.5277    3.8701 H         1 UNK         0.3204 
    126 H126       34.1164   31.2233    5.1584 H         1 UNK         0.0748 
    127 H127       36.5778   31.1636    4.9062 H         1 UNK         0.0771 
    128 H128       36.4652   31.8074    3.2765 H         1 UNK         0.0771 
    129 H129       35.9741   32.7933    4.6525 H         1 UNK         0.0771 
    130 H130       32.4939   29.6968    4.1030 H         1 UNK         0.2980 
    131 H131       33.1897   27.6747    2.3557 H         1 UNK         0.0545 
    132 H132       33.7005   25.3638    2.6166 H         1 UNK         0.3459 
    133 H133       34.7108   24.8768    3.9504 H         1 UNK         0.3459 
    134 H134       30.8921   28.0284    2.9702 H         1 UNK         0.0616 
    135 H135       31.2867   26.3894    3.3539 H         1 UNK         0.0616 
    136 H136       30.7809   26.2301    7.2030 H         1 UNK         0.0634 
    137 H137       32.0878   25.8063    6.1360 H         1 UNK         0.0634 
@<TRIPOS>BOND
     1    1    2 1    
     2    1   72 1    
     3    1   73 1    
     4    1   74 1    
     5    2    3 2    
     6    2    4 am   BACKBONE|DICT|INTERRES
     7    4    5 1    
     8    4   75 1    
     9    5    6 1    
    10    5   35 1    
    11    5   76 1    
    12    6    7 1    
    13    6   77 1    
    14    6   78 1    
    15    7    8 1    
    16    8    9 1    
    17    8   79 1    
    18    8   80 1    
    19    9   10 ar   
    20    9   14 ar   
    21   10   11 ar   
    22   10   81 1    
    23   11   12 ar   
    24   11   71 1    
    25   12   13 ar   
    26   12   82 1    
    27   13   14 ar   
    28   13   15 1    
    29   14   83 1    
    30   15   16 1    
    31   15   84 1    
    32   15   85 1    
    33   16   17 1    
    34   17   18 1    
    35   17   86 1    
    36   17   87 1    
    37   18   19 1    
    38   18   37 1    
    39   18   88 1    
    40   19   20 am   BACKBONE|DICT|INTERRES
    41   19   89 1    
    42   20   21 2    
    43   20   22 1    
    44   22   23 1    
    45   22   24 1    
    46   22   90 1    
    47   23   91 1    
    48   23   92 1    
    49   23   93 1    
    50   24   25 am   BACKBONE|DICT|INTERRES
    51   24   94 1    
    52   25   26 2    
    53   25   27 1    
    54   27   28 1    
    55   27   29 1    
    56   27   95 1    
    57   28   96 1    
    58   28   97 1    
    59   28   98 1    
    60   29   30 am   BACKBONE|DICT|INTERRES
    61   29   99 1    
    62   30   31 2    
    63   30   32 1    
    64   32   33 1    
    65   32   34 1    
    66   32  100 1    
    67   33  101 1    
    68   33  102 1    
    69   33  103 1    
    70   34   35 am   BACKBONE|DICT|INTERRES
    71   34  104 1    
    72   35   36 2    
    73   37   38 2    
    74   37   39 am   BACKBONE|DICT|INTERRES
    75   39   40 1    
    76   39  105 1    
    77   40   41 1    
    78   40   42 1    
    79   40  106 1    
    80   41  107 1    
    81   41  108 1    
    82   41  109 1    
    83   42   43 2    
    84   42   44 am   BACKBONE|DICT|INTERRES
    85   44   45 1    
    86   44  110 1    
    87   45   46 1    
    88   45   47 1    
    89   45  111 1    
    90   46  112 1    
    91   46  113 1    
    92   46  114 1    
    93   47   48 2    
    94   47   49 am   BACKBONE|DICT|INTERRES
    95   49   50 1    
    96   49  115 1    
    97   50   51 1    
    98   50   52 1    
    99   50  116 1    
   100   51  117 1    
   101   51  118 1    
   102   51  119 1    
   103   52   53 2    
   104   52   54 am   BACKBONE|DICT|INTERRES
   105   54   55 1    
   106   54  120 1    
   107   55   56 1    
   108   55   57 1    
   109   55  121 1    
   110   56  122 1    
   111   56  123 1    
   112   56  124 1    
   113   57   58 2    
   114   57   59 am   BACKBONE|DICT|INTERRES
   115   59   60 1    
   116   59  125 1    
   117   60   61 1    
   118   60   62 1    
   119   60  126 1    
   120   61  127 1    
   121   61  128 1    
   122   61  129 1    
   123   62   63 2    
   124   62   64 am   BACKBONE|DICT|INTERRES
   125   64   65 1    
   126   64  130 1    
   127   65   66 1    
   128   65   69 1    
   129   65  131 1    
   130   66   67 am   BACKBONE|DICT|INTERRES
   131   66   68 2    
   132   67  132 1    
   133   67  133 1    
   134   69   70 1    
   135   69  134 1    
   136   69  135 1    
   137   70   71 1    
   138   71  136 1    
   139   71  137 1    
@<TRIPOS>SUBSTRUCTURE
     1 UNK         1 GROUP             0       ****    0 ROOT    
