@<TRIPOS>MOLECULE
3R136
137   139    1
SMALL
USER_CHARGES


@<TRIPOS>ATOM
      1 CA         32.1594   28.7569   -0.3772 C.3       0 UNK        -0.1979 
      2 C          31.5764   27.4811   -0.9670 C.2       0 UNK         0.4864 
      3 O          31.5455   27.3323   -2.1890 O.2       0 UNK        -0.5359 
      4 N          31.1172   26.5722   -0.1001 N.am      1 UNK        -0.4318 
      5 CA         30.4289   25.3220   -0.4192 C.3       1 UNK         0.0824 
      6 C6         31.2507   24.3716   -1.3368 C.3       12 UNK        -0.0944 
      7 S7         30.7801   22.6193   -1.1407 S.3       12 UNK        -0.2672 
      8 C8         32.0039   22.0363    0.0738 C.3       12 UNK         0.0333 
      9 C9         31.7927   22.6403    1.4568 C.ar      12 UNK        -0.0807 
     10 C10        32.7460   23.5086    2.0010 C.ar      12 UNK        -0.0894 
     11 C11        32.5997   24.0021    3.3019 C.ar      12 UNK        -0.0804 
     12 C12        31.4806   23.6272    4.0506 C.ar      12 UNK        -0.0824 
     13 C13        30.4969   22.7981    3.5047 C.ar      12 UNK        -0.0762 
     14 C14        30.6629   22.2995    2.2092 C.ar      12 UNK        -0.0782 
     15 C15        29.2786   22.4116    4.3354 C.3       12 UNK         0.0230 
     16 S16        27.7890   23.3726    3.9031 S.3       12 UNK        -0.2608 
     17 C17        28.2917   25.0870    4.2800 C.3       12 UNK        -0.0989 
     18 CA         28.3189   25.9443    2.9872 C.3       5 UNK         0.0716 
     19 N          26.9945   26.2729    2.4415 N.am      5 UNK        -0.4135 
     20 C          26.0179   26.9809    3.0290 C.2       4 UNK         0.5031 
     21 O          26.0810   27.4097    4.1827 O.2       4 UNK        -0.5229 
     22 CA         24.7747   27.3163    2.1882 C.3       4 UNK         0.0329 
     23 CB         24.8827   28.7444    1.6292 C.3       4 UNK        -0.2001 
     24 N          24.5434   26.3831    1.0837 N.am      4 UNK        -0.4303 
     25 C          23.9827   25.1731    1.2215 C.2       3 UNK         0.5044 
     26 O          23.5987   24.7142    2.2978 O.2       3 UNK        -0.5152 
     27 CA         23.8052   24.3354   -0.0590 C.3       3 UNK         0.0319 
     28 CB         22.4017   24.5484   -0.6494 C.3       3 UNK        -0.2001 
     29 N          24.8107   24.6171   -1.0894 N.am      3 UNK        -0.4354 
     30 C          26.1078   24.2991   -0.9830 C.2       2 UNK         0.4964 
     31 O          26.5783   23.7095   -0.0076 O.2       2 UNK        -0.5047 
     32 CA         27.0254   24.6855   -2.1631 C.3       2 UNK         0.0288 
     33 CB         26.5927   25.9836   -2.8848 C.3       2 UNK        -0.2113 
     34 N          28.4333   24.7566   -1.7534 N.am      2 UNK        -0.4145 
     35 C          28.9709   25.5933   -0.8538 C.2       1 UNK         0.5006 
     36 O          28.3440   26.5138   -0.3214 O.2       1 UNK        -0.5103 
     37 C          29.2041   27.1984    3.1185 C.2       5 UNK         0.5055 
     38 O          30.2092   27.3060    2.4172 O.2       5 UNK        -0.5220 
     39 N          28.8011   28.1595    3.9563 N.am      6 UNK        -0.4450 
     40 CA         29.4549   29.4605    4.1123 C.3       6 UNK         0.0367 
     41 CB         29.2504   29.9570    5.5546 C.3       6 UNK        -0.1929 
     42 C          28.9543   30.4626    3.0530 C.2       6 UNK         0.5070 
     43 O          28.5045   31.5565    3.3967 O.2       6 UNK        -0.5237 
     44 N          29.0093   30.0593    1.7760 N.am      7 UNK        -0.4739 
     45 CA         28.5158   30.8324    0.6304 C.3       7 UNK         0.0276 
     46 CB         28.3168   29.8886   -0.5670 C.3       7 UNK        -0.1927 
     47 C          29.4218   32.0119    0.2318 C.2       7 UNK         0.5013 
     48 O          28.9526   32.9168   -0.4595 O.2       7 UNK        -0.5193 
     49 N          30.6909   31.9808    0.6555 N.am      8 UNK        -0.4253 
     50 CA         31.7000   33.0067    0.3889 C.3       8 UNK         0.0242 
     51 CB         32.1691   32.9717   -1.0803 C.3       8 UNK        -0.2000 
     52 C          32.8766   32.8295    1.3516 C.2       8 UNK         0.4948 
     53 O          33.2503   33.7808    2.0386 O.2       8 UNK        -0.5275 
     54 N          33.4204   31.6049    1.4004 N.am      9 UNK        -0.4246 
     55 CA         34.4388   31.1833    2.3629 C.3       9 UNK         0.0261 
     56 CB         35.0045   29.8199    1.9314 C.3       9 UNK        -0.1959 
     57 C          33.8558   31.0886    3.7814 C.2       9 UNK         0.5033 
     58 O          32.6727   30.7741    3.9376 O.2       9 UNK        -0.5390 
     59 N          34.7038   31.3132    4.7917 N.am      10 UNK        -0.4215 
     60 CA         34.3565   31.2571    6.2149 C.3       10 UNK         0.0240 
     61 CB         35.3600   32.1177    7.0068 C.3       10 UNK        -0.1982 
     62 C          34.2669   29.8096    6.7415 C.2       10 UNK         0.4970 
     63 O          34.9595   29.4566    7.6983 O.2       10 UNK        -0.4916 
     64 N          33.4272   28.9940    6.0955 N.am      11 UNK        -0.4279 
     65 CA         33.1100   27.6160    6.4905 C.3       11 UNK         0.1003 
     66 C          32.3629   27.5467    7.8515 C.2       11 UNK         0.5709 
     67 N          32.5802   26.4910    8.6239 N.am      11 UNK        -0.7358 
     68 O          31.5616   28.4148    8.1932 O.2       11 UNK        -0.4999 
     69 C69        32.3021   26.8859    5.3891 C.3       12 UNK        -0.0954 
     70 S70        33.2495   26.6637    3.8437 S.3       12 UNK        -0.2268 
     71 C71        33.6772   24.8930    3.9120 C.3       12 UNK         0.0203 
     72 H72        31.7107   29.6270   -0.8548 H         1 UNK         0.0888 
     73 H73        31.9812   28.8200    0.6966 H         1 UNK         0.0888 
     74 H74        33.2347   28.7866   -0.5511 H         1 UNK         0.0888 
     75 H75        31.0698   26.8200    0.8877 H         1 UNK         0.3017 
     76 H76        30.3367   24.8298    0.5484 H         1 UNK         0.0873 
     77 H77        32.3137   24.4629   -1.1077 H         1 UNK         0.0745 
     78 H78        31.1556   24.6546   -2.3866 H         1 UNK         0.0745 
     79 H79        33.0087   22.2445   -0.2971 H         1 UNK         0.0705 
     80 H80        31.9290   20.9506    0.1491 H         1 UNK         0.0705 
     81 H81        33.6186   23.7789    1.4222 H         1 UNK         0.1334 
     82 H82        31.3726   23.9711    5.0677 H         1 UNK         0.1417 
     83 H83        29.9172   21.6381    1.7886 H         1 UNK         0.1562 
     84 H84        29.4845   22.5334    5.4001 H         1 UNK         0.0748 
     85 H85        29.0643   21.3516    4.1910 H         1 UNK         0.0748 
     86 H86        29.2675   25.0792    4.7654 H         1 UNK         0.0940 
     87 H87        27.6066   25.4985    5.0217 H         1 UNK         0.0940 
     88 H88        28.7977   25.3384    2.2182 H         1 UNK         0.0703 
     89 H89        26.8666   26.0054    1.4744 H         1 UNK         0.3081 
     90 H90        23.9123   27.2831    2.8578 H         1 UNK         0.0719 
     91 H91        23.9709   29.0371    1.1083 H         1 UNK         0.0809 
     92 H92        25.0427   29.4678    2.4303 H         1 UNK         0.0809 
     93 H93        25.7143   28.8436    0.9328 H         1 UNK         0.0809 
     94 H94        24.8220   26.6820    0.1605 H         1 UNK         0.2990 
     95 H95        23.8979   23.2845    0.2241 H         1 UNK         0.0690 
     96 H96        21.6301   24.3202    0.0875 H         1 UNK         0.0788 
     97 H97        22.2287   23.8985   -1.5075 H         1 UNK         0.0788 
     98 H98        22.2496   25.5795   -0.9712 H         1 UNK         0.0788 
     99 H99        24.4915   25.0873   -1.9245 H         1 UNK         0.2993 
    100 H100       26.9606   23.8653   -2.8796 H         1 UNK         0.0949 
    101 H101       26.4927   26.8228   -2.1952 H         1 UNK         0.0767 
    102 H102       27.3191   26.2689   -3.6459 H         1 UNK         0.0767 
    103 H103       25.6369   25.8588   -3.3945 H         1 UNK         0.0767 
    104 H104       29.0175   23.9915   -2.0660 H         1 UNK         0.3013 
    105 H105       27.8935   28.0394    4.3993 H         1 UNK         0.3121 
    106 H106       30.5277   29.3418    3.9546 H         1 UNK         0.0774 
    107 H107       28.1961   30.1204    5.7805 H         1 UNK         0.0815 
    108 H108       29.7733   30.9003    5.7182 H         1 UNK         0.0815 
    109 H109       29.6435   29.2430    6.2783 H         1 UNK         0.0815 
    110 H110       29.3786   29.1341    1.5895 H         1 UNK         0.2987 
    111 H111       27.5426   31.2510    0.8971 H         1 UNK         0.0949 
    112 H112       29.2525   29.4327   -0.8877 H         1 UNK         0.0806 
    113 H113       27.6230   29.0833   -0.3321 H         1 UNK         0.0806 
    114 H114       27.9068   30.4246   -1.4241 H         1 UNK         0.0806 
    115 H115       30.9526   31.2503    1.3029 H         1 UNK         0.3010 
    116 H116       31.2560   33.9843    0.5898 H         1 UNK         0.0829 
    117 H117       31.3566   33.2143   -1.7652 H         1 UNK         0.0813 
    118 H118       32.9604   33.7024   -1.2532 H         1 UNK         0.0813 
    119 H119       32.5602   31.9940   -1.3626 H         1 UNK         0.0813 
    120 H120       33.0691   30.8926    0.7813 H         1 UNK         0.3038 
    121 H121       35.2441   31.9212    2.3564 H         1 UNK         0.0769 
    122 H122       34.2410   29.0410    1.9488 H         1 UNK         0.0811 
    123 H123       35.8048   29.4990    2.5996 H         1 UNK         0.0811 
    124 H124       35.4227   29.8609    0.9255 H         1 UNK         0.0811 
    125 H125       35.6691   31.5186    4.5761 H         1 UNK         0.3204 
    126 H126       33.3675   31.7018    6.3482 H         1 UNK         0.0748 
    127 H127       36.3773   31.7329    6.9241 H         1 UNK         0.0771 
    128 H128       35.3614   33.1498    6.6553 H         1 UNK         0.0771 
    129 H129       35.1045   32.1410    8.0672 H         1 UNK         0.0771 
    130 H130       32.9111   29.3741    5.3088 H         1 UNK         0.2980 
    131 H131       34.0605   27.0930    6.6139 H         1 UNK         0.0545 
    132 H132       33.2291   25.7687    8.3533 H         1 UNK         0.3459 
    133 H133       32.0935   26.4218    9.5039 H         1 UNK         0.3459 
    134 H134       31.9744   25.9138    5.7509 H         1 UNK         0.0616 
    135 H135       31.3919   27.4386    5.1585 H         1 UNK         0.0616 
    136 H136       33.8720   24.5973    4.9439 H         1 UNK         0.0634 
    137 H137       34.6187   24.7511    3.3794 H         1 UNK         0.0634 
@<TRIPOS>BOND
     1    1    2 1    
     2    1   72 1    
     3    1   73 1    
     4    1   74 1    
     5    2    3 2    
     6    2    4 am   BACKBONE|DICT|INTERRES
     7    4    5 1    
     8    4   75 1    
     9    5    6 1    
    10    5   35 1    
    11    5   76 1    
    12    6    7 1    
    13    6   77 1    
    14    6   78 1    
    15    7    8 1    
    16    8    9 1    
    17    8   79 1    
    18    8   80 1    
    19    9   10 ar   
    20    9   14 ar   
    21   10   11 ar   
    22   10   81 1    
    23   11   12 ar   
    24   11   71 1    
    25   12   13 ar   
    26   12   82 1    
    27   13   14 ar   
    28   13   15 1    
    29   14   83 1    
    30   15   16 1    
    31   15   84 1    
    32   15   85 1    
    33   16   17 1    
    34   17   18 1    
    35   17   86 1    
    36   17   87 1    
    37   18   19 1    
    38   18   37 1    
    39   18   88 1    
    40   19   20 am   BACKBONE|DICT|INTERRES
    41   19   89 1    
    42   20   21 2    
    43   20   22 1    
    44   22   23 1    
    45   22   24 1    
    46   22   90 1    
    47   23   91 1    
    48   23   92 1    
    49   23   93 1    
    50   24   25 am   BACKBONE|DICT|INTERRES
    51   24   94 1    
    52   25   26 2    
    53   25   27 1    
    54   27   28 1    
    55   27   29 1    
    56   27   95 1    
    57   28   96 1    
    58   28   97 1    
    59   28   98 1    
    60   29   30 am   BACKBONE|DICT|INTERRES
    61   29   99 1    
    62   30   31 2    
    63   30   32 1    
    64   32   33 1    
    65   32   34 1    
    66   32  100 1    
    67   33  101 1    
    68   33  102 1    
    69   33  103 1    
    70   34   35 am   BACKBONE|DICT|INTERRES
    71   34  104 1    
    72   35   36 2    
    73   37   38 2    
    74   37   39 am   BACKBONE|DICT|INTERRES
    75   39   40 1    
    76   39  105 1    
    77   40   41 1    
    78   40   42 1    
    79   40  106 1    
    80   41  107 1    
    81   41  108 1    
    82   41  109 1    
    83   42   43 2    
    84   42   44 am   BACKBONE|DICT|INTERRES
    85   44   45 1    
    86   44  110 1    
    87   45   46 1    
    88   45   47 1    
    89   45  111 1    
    90   46  112 1    
    91   46  113 1    
    92   46  114 1    
    93   47   48 2    
    94   47   49 am   BACKBONE|DICT|INTERRES
    95   49   50 1    
    96   49  115 1    
    97   50   51 1    
    98   50   52 1    
    99   50  116 1    
   100   51  117 1    
   101   51  118 1    
   102   51  119 1    
   103   52   53 2    
   104   52   54 am   BACKBONE|DICT|INTERRES
   105   54   55 1    
   106   54  120 1    
   107   55   56 1    
   108   55   57 1    
   109   55  121 1    
   110   56  122 1    
   111   56  123 1    
   112   56  124 1    
   113   57   58 2    
   114   57   59 am   BACKBONE|DICT|INTERRES
   115   59   60 1    
   116   59  125 1    
   117   60   61 1    
   118   60   62 1    
   119   60  126 1    
   120   61  127 1    
   121   61  128 1    
   122   61  129 1    
   123   62   63 2    
   124   62   64 am   BACKBONE|DICT|INTERRES
   125   64   65 1    
   126   64  130 1    
   127   65   66 1    
   128   65   69 1    
   129   65  131 1    
   130   66   67 am   BACKBONE|DICT|INTERRES
   131   66   68 2    
   132   67  132 1    
   133   67  133 1    
   134   69   70 1    
   135   69  134 1    
   136   69  135 1    
   137   70   71 1    
   138   71  136 1    
   139   71  137 1    
@<TRIPOS>SUBSTRUCTURE
     1 UNK         1 GROUP             0       ****    0 ROOT    
