@<TRIPOS>MOLECULE
3R136
137   139    1
SMALL
USER_CHARGES


@<TRIPOS>ATOM
      1 CA         28.9091   21.2834   -3.0894 C.3       0 UNK        -0.1979 
      2 C          29.3657   22.7289   -2.9535 C.2       0 UNK         0.4864 
      3 O          30.0411   23.2409   -3.8481 O.2       0 UNK        -0.5359 
      4 N          29.0062   23.3811   -1.8406 N.am      1 UNK        -0.4318 
      5 CA         29.2847   24.7945   -1.5635 C.3       1 UNK         0.0824 
      6 C6         29.5918   25.0182   -0.0565 C.3       12 UNK        -0.0944 
      7 S7         30.9579   26.1977    0.1841 S.3       12 UNK        -0.2672 
      8 C8         32.3519   25.0840    0.5379 C.3       12 UNK         0.0333 
      9 C9         32.3290   24.5974    1.9789 C.ar      12 UNK        -0.0807 
     10 C10        32.7702   25.4414    3.0014 C.ar      12 UNK        -0.0894 
     11 C11        32.7767   25.0078    4.3291 C.ar      12 UNK        -0.0804 
     12 C12        32.3129   23.7245    4.6345 C.ar      12 UNK        -0.0824 
     13 C13        31.8506   22.8750    3.6221 C.ar      12 UNK        -0.0762 
     14 C14        31.8802   23.3104    2.2931 C.ar      12 UNK        -0.0782 
     15 C15        31.3115   21.4902    3.9669 C.3       12 UNK         0.0230 
     16 S16        29.5091   21.3460    3.6983 S.3       12 UNK        -0.2608 
     17 C17        28.8743   22.7552    4.6675 C.3       12 UNK        -0.0989 
     18 CA         28.4792   23.9310    3.7271 C.3       5 UNK         0.0716 
     19 N          27.1402   23.7984    3.1445 N.am      5 UNK        -0.4135 
     20 C          25.9637   23.8422    3.7840 C.2       4 UNK         0.5031 
     21 O          25.8383   23.9330    5.0064 O.2       4 UNK        -0.5229 
     22 CA         24.7112   23.8147    2.8833 C.3       4 UNK         0.0329 
     23 CB         23.4399   23.4179    3.6571 C.3       4 UNK        -0.2001 
     24 N          24.4860   25.1099    2.2333 N.am      4 UNK        -0.4303 
     25 C          25.2492   25.6274    1.2619 C.2       3 UNK         0.5044 
     26 O          26.2036   25.0213    0.7656 O.2       3 UNK        -0.5152 
     27 CA         24.8908   27.0434    0.7753 C.3       3 UNK         0.0319 
     28 CB         24.7379   28.0353    1.9425 C.3       3 UNK        -0.2001 
     29 N          25.9547   27.5260   -0.1009 N.am      3 UNK        -0.4354 
     30 C          25.8508   27.7353   -1.4171 C.2       2 UNK         0.4964 
     31 O          24.7904   27.7129   -2.0438 O.2       2 UNK        -0.5047 
     32 CA         27.1727   27.9751   -2.1664 C.3       2 UNK         0.0288 
     33 CB         27.6883   29.4034   -1.9275 C.3       2 UNK        -0.2113 
     34 N          28.2028   26.9971   -1.7926 N.am      2 UNK        -0.4145 
     35 C          28.1394   25.6902   -2.0920 C.2       1 UNK         0.5006 
     36 O          27.2301   25.1974   -2.7675 O.2       1 UNK        -0.5103 
     37 C          28.6729   25.3268    4.3512 C.2       5 UNK         0.5055 
     38 O          28.8639   25.4482    5.5620 O.2       5 UNK        -0.5220 
     39 N          28.6116   26.3490    3.4899 N.am      6 UNK        -0.4450 
     40 CA         28.9618   27.7377    3.7616 C.3       6 UNK         0.0367 
     41 CB         27.9695   28.3928    4.7428 C.3       6 UNK        -0.1929 
     42 C          28.9914   28.4893    2.4266 C.2       6 UNK         0.5070 
     43 O          28.2656   28.1188    1.4984 O.2       6 UNK        -0.5237 
     44 N          29.8089   29.5410    2.3710 N.am      7 UNK        -0.4739 
     45 CA         29.9485   30.4939    1.2737 C.3       7 UNK         0.0276 
     46 CB         30.7073   29.8522    0.0953 C.3       7 UNK        -0.1927 
     47 C          30.6728   31.7394    1.8067 C.2       7 UNK         0.5013 
     48 O          31.0596   31.7683    2.9791 O.2       7 UNK        -0.5193 
     49 N          30.8508   32.7509    0.9446 N.am      8 UNK        -0.4253 
     50 CA         31.5962   33.9790    1.2426 C.3       8 UNK         0.0242 
     51 CB         31.5540   34.9142    0.0231 C.3       8 UNK        -0.2000 
     52 C          33.0486   33.6661    1.6422 C.2       8 UNK         0.4948 
     53 O          33.7411   32.9683    0.8974 O.2       8 UNK        -0.5275 
     54 N          33.4537   34.1306    2.8327 N.am      9 UNK        -0.4246 
     55 CA         34.7139   33.8604    3.5453 C.3       9 UNK         0.0261 
     56 CB         35.9408   34.3403    2.7449 C.3       9 UNK        -0.1959 
     57 C          34.8857   32.3980    4.0053 C.2       9 UNK         0.5033 
     58 O          35.3142   32.1706    5.1384 O.2       9 UNK        -0.5390 
     59 N          34.5396   31.4332    3.1457 N.am      10 UNK        -0.4215 
     60 CA         34.5622   29.9942    3.4039 C.3       10 UNK         0.0240 
     61 CB         34.5850   29.2483    2.0579 C.3       10 UNK        -0.1982 
     62 C          33.3898   29.5609    4.3050 C.2       10 UNK         0.4970 
     63 O          32.4343   28.9544    3.8233 O.2       10 UNK        -0.4916 
     64 N          33.5037   29.9018    5.5933 N.am      11 UNK        -0.4279 
     65 CA         32.6326   29.5447    6.7270 C.3       11 UNK         0.1003 
     66 C          31.1491   30.0253    6.6819 C.2       11 UNK         0.5709 
     67 N          30.7144   30.8024    5.6991 N.am      11 UNK        -0.7358 
     68 O          30.3838   29.7382    7.5995 O.2       11 UNK        -0.4999 
     69 C69        32.8180   28.0717    7.2064 C.3       12 UNK        -0.0954 
     70 S70        31.9264   26.8023    6.2436 S.3       12 UNK        -0.2268 
     71 C71        33.2916   25.9273    5.4265 C.3       12 UNK         0.0203 
     72 H72        28.2774   21.1714   -3.9703 H         1 UNK         0.0888 
     73 H73        29.7712   20.6264   -3.2016 H         1 UNK         0.0888 
     74 H74        28.3410   20.9512   -2.2205 H         1 UNK         0.0888 
     75 H75        28.4021   22.9209   -1.1751 H         1 UNK         0.3017 
     76 H76        30.1693   25.0748   -2.1399 H         1 UNK         0.0873 
     77 H77        28.7221   25.3797    0.4917 H         1 UNK         0.0745 
     78 H78        29.8610   24.0790    0.4266 H         1 UNK         0.0745 
     79 H79        32.3419   24.2459   -0.1609 H         1 UNK         0.0705 
     80 H80        33.2832   25.6221    0.3547 H         1 UNK         0.0705 
     81 H81        33.1056   26.4411    2.7623 H         1 UNK         0.1334 
     82 H82        32.3014   23.3950    5.6645 H         1 UNK         0.1417 
     83 H83        31.5337   22.6513    1.5087 H         1 UNK         0.1562 
     84 H84        31.5340   21.2372    5.0048 H         1 UNK         0.0748 
     85 H85        31.8208   20.7433    3.3564 H         1 UNK         0.0748 
     86 H86        29.6425   23.0457    5.3855 H         1 UNK         0.0940 
     87 H87        28.0290   22.4254    5.2723 H         1 UNK         0.0940 
     88 H88        29.1658   23.9224    2.8798 H         1 UNK         0.0703 
     89 H89        27.0958   23.8255    2.1313 H         1 UNK         0.3081 
     90 H90        24.8748   23.0612    2.1095 H         1 UNK         0.0719 
     91 H91        23.1870   24.1490    4.4261 H         1 UNK         0.0809 
     92 H92        22.5830   23.3223    2.9901 H         1 UNK         0.0809 
     93 H93        23.5711   22.4554    4.1535 H         1 UNK         0.0809 
     94 H94        23.7311   25.6695    2.6026 H         1 UNK         0.2990 
     95 H95        23.9438   26.9792    0.2362 H         1 UNK         0.0690 
     96 H96        24.5553   29.0459    1.5767 H         1 UNK         0.0788 
     97 H97        25.6362   28.0655    2.5578 H         1 UNK         0.0788 
     98 H98        23.8998   27.7756    2.5896 H         1 UNK         0.0788 
     99 H99        26.8752   27.5822    0.3303 H         1 UNK         0.2993 
    100 H100       26.9748   27.8610   -3.2346 H         1 UNK         0.0949 
    101 H101       26.9634   30.1396   -2.2770 H         1 UNK         0.0767 
    102 H102       27.8600   29.5973   -0.8689 H         1 UNK         0.0767 
    103 H103       28.6204   29.5868   -2.4622 H         1 UNK         0.0767 
    104 H104       28.9565   27.3216   -1.2019 H         1 UNK         0.3013 
    105 H105       28.4132   26.1769    2.5122 H         1 UNK         0.3121 
    106 H106       29.9656   27.7606    4.1900 H         1 UNK         0.0774 
    107 H107       28.1468   29.4657    4.8229 H         1 UNK         0.0815 
    108 H108       26.9358   28.2533    4.4307 H         1 UNK         0.0815 
    109 H109       28.0738   27.9811    5.7464 H         1 UNK         0.0815 
    110 H110       30.4053   29.7513    3.1660 H         1 UNK         0.2987 
    111 H111       28.9525   30.8011    0.9496 H         1 UNK         0.0949 
    112 H112       30.8498   30.5536   -0.7270 H         1 UNK         0.0806 
    113 H113       31.6905   29.4963    0.3992 H         1 UNK         0.0806 
    114 H114       30.1634   29.0009   -0.3088 H         1 UNK         0.0806 
    115 H115       30.5221   32.6444   -0.0036 H         1 UNK         0.3010 
    116 H116       31.0942   34.4759    2.0755 H         1 UNK         0.0829 
    117 H117       30.5301   35.1808   -0.2396 H         1 UNK         0.0813 
    118 H118       32.0878   35.8437    0.2264 H         1 UNK         0.0813 
    119 H119       32.0184   34.4575   -0.8521 H         1 UNK         0.0813 
    120 H120       32.7796   34.6588    3.3704 H         1 UNK         0.3038 
    121 H121       34.6665   34.4629    4.4539 H         1 UNK         0.0769 
    122 H122       36.0836   33.7683    1.8278 H         1 UNK         0.0811 
    123 H123       36.8525   34.2350    3.3345 H         1 UNK         0.0811 
    124 H124       35.8504   35.3920    2.4735 H         1 UNK         0.0811 
    125 H125       34.1888   31.7350    2.2394 H         1 UNK         0.3204 
    126 H126       35.4885   29.7502    3.9285 H         1 UNK         0.0748 
    127 H127       35.4594   29.5230    1.4678 H         1 UNK         0.0771 
    128 H128       34.6234   28.1694    2.2087 H         1 UNK         0.0771 
    129 H129       33.6995   29.4665    1.4626 H         1 UNK         0.0771 
    130 H130       34.2845   30.5050    5.8281 H         1 UNK         0.2980 
    131 H131       33.0464   30.1547    7.5306 H         1 UNK         0.0545 
    132 H132       29.7641   31.1313    5.7287 H         1 UNK         0.3459 
    133 H133       31.2999   31.0491    4.9109 H         1 UNK         0.3459 
    134 H134       33.8795   27.8228    7.2416 H         1 UNK         0.0616 
    135 H135       32.4719   27.9840    8.2375 H         1 UNK         0.0616 
    136 H136       33.9899   26.6536    5.0084 H         1 UNK         0.0634 
    137 H137       33.8479   25.3529    6.1685 H         1 UNK         0.0634 
@<TRIPOS>BOND
     1    1    2 1    
     2    1   72 1    
     3    1   73 1    
     4    1   74 1    
     5    2    3 2    
     6    2    4 am   BACKBONE|DICT|INTERRES
     7    4    5 1    
     8    4   75 1    
     9    5    6 1    
    10    5   35 1    
    11    5   76 1    
    12    6    7 1    
    13    6   77 1    
    14    6   78 1    
    15    7    8 1    
    16    8    9 1    
    17    8   79 1    
    18    8   80 1    
    19    9   10 ar   
    20    9   14 ar   
    21   10   11 ar   
    22   10   81 1    
    23   11   12 ar   
    24   11   71 1    
    25   12   13 ar   
    26   12   82 1    
    27   13   14 ar   
    28   13   15 1    
    29   14   83 1    
    30   15   16 1    
    31   15   84 1    
    32   15   85 1    
    33   16   17 1    
    34   17   18 1    
    35   17   86 1    
    36   17   87 1    
    37   18   19 1    
    38   18   37 1    
    39   18   88 1    
    40   19   20 am   BACKBONE|DICT|INTERRES
    41   19   89 1    
    42   20   21 2    
    43   20   22 1    
    44   22   23 1    
    45   22   24 1    
    46   22   90 1    
    47   23   91 1    
    48   23   92 1    
    49   23   93 1    
    50   24   25 am   BACKBONE|DICT|INTERRES
    51   24   94 1    
    52   25   26 2    
    53   25   27 1    
    54   27   28 1    
    55   27   29 1    
    56   27   95 1    
    57   28   96 1    
    58   28   97 1    
    59   28   98 1    
    60   29   30 am   BACKBONE|DICT|INTERRES
    61   29   99 1    
    62   30   31 2    
    63   30   32 1    
    64   32   33 1    
    65   32   34 1    
    66   32  100 1    
    67   33  101 1    
    68   33  102 1    
    69   33  103 1    
    70   34   35 am   BACKBONE|DICT|INTERRES
    71   34  104 1    
    72   35   36 2    
    73   37   38 2    
    74   37   39 am   BACKBONE|DICT|INTERRES
    75   39   40 1    
    76   39  105 1    
    77   40   41 1    
    78   40   42 1    
    79   40  106 1    
    80   41  107 1    
    81   41  108 1    
    82   41  109 1    
    83   42   43 2    
    84   42   44 am   BACKBONE|DICT|INTERRES
    85   44   45 1    
    86   44  110 1    
    87   45   46 1    
    88   45   47 1    
    89   45  111 1    
    90   46  112 1    
    91   46  113 1    
    92   46  114 1    
    93   47   48 2    
    94   47   49 am   BACKBONE|DICT|INTERRES
    95   49   50 1    
    96   49  115 1    
    97   50   51 1    
    98   50   52 1    
    99   50  116 1    
   100   51  117 1    
   101   51  118 1    
   102   51  119 1    
   103   52   53 2    
   104   52   54 am   BACKBONE|DICT|INTERRES
   105   54   55 1    
   106   54  120 1    
   107   55   56 1    
   108   55   57 1    
   109   55  121 1    
   110   56  122 1    
   111   56  123 1    
   112   56  124 1    
   113   57   58 2    
   114   57   59 am   BACKBONE|DICT|INTERRES
   115   59   60 1    
   116   59  125 1    
   117   60   61 1    
   118   60   62 1    
   119   60  126 1    
   120   61  127 1    
   121   61  128 1    
   122   61  129 1    
   123   62   63 2    
   124   62   64 am   BACKBONE|DICT|INTERRES
   125   64   65 1    
   126   64  130 1    
   127   65   66 1    
   128   65   69 1    
   129   65  131 1    
   130   66   67 am   BACKBONE|DICT|INTERRES
   131   66   68 2    
   132   67  132 1    
   133   67  133 1    
   134   69   70 1    
   135   69  134 1    
   136   69  135 1    
   137   70   71 1    
   138   71  136 1    
   139   71  137 1    
@<TRIPOS>SUBSTRUCTURE
     1 UNK         1 GROUP             0       ****    0 ROOT    
