@<TRIPOS>MOLECULE
3R136
137   139    1
SMALL
USER_CHARGES


@<TRIPOS>ATOM
      1 CA         29.1636   28.3522   -2.4016 C.3       0 UNK        -0.1979 
      2 C          29.2002   27.2146   -1.3935 C.2       0 UNK         0.4864 
      3 O          29.0583   27.4638   -0.1981 O.2       0 UNK        -0.5359 
      4 N          29.4040   25.9780   -1.8606 N.am      1 UNK        -0.4318 
      5 CA         29.3858   24.7520   -1.0571 C.3       1 UNK         0.0824 
      6 C6         30.4098   23.7325   -1.6334 C.3       12 UNK        -0.0944 
      7 S7         30.6275   22.1993   -0.6645 S.3       12 UNK        -0.2672 
      8 C8         32.0273   22.6127    0.4245 C.3       12 UNK         0.0333 
      9 C9         31.6326   23.4971    1.6021 C.ar      12 UNK        -0.0807 
     10 C10        32.3975   24.6258    1.9135 C.ar      12 UNK        -0.0894 
     11 C11        32.0940   25.4006    3.0368 C.ar      12 UNK        -0.0804 
     12 C12        31.0094   25.0493    3.8442 C.ar      12 UNK        -0.0824 
     13 C13        30.2304   23.9290    3.5414 C.ar      12 UNK        -0.0762 
     14 C14        30.5485   23.1561    2.4207 C.ar      12 UNK        -0.0782 
     15 C15        29.0739   23.5276    4.4477 C.3       12 UNK         0.0230 
     16 S16        27.4806   24.2026    3.8796 S.3       12 UNK        -0.2608 
     17 C17        27.7027   25.9874    4.1910 C.3       12 UNK        -0.0989 
     18 CA         27.9630   26.7644    2.8730 C.3       5 UNK         0.0716 
     19 N          26.8244   26.6920    1.9444 N.am      5 UNK        -0.4135 
     20 C          25.6321   27.2892    2.0959 C.2       4 UNK         0.5031 
     21 O          25.3282   28.0181    3.0412 O.2       4 UNK        -0.5229 
     22 CA         24.5882   27.0037    1.0090 C.3       4 UNK         0.0329 
     23 CB         24.9490   27.7111   -0.3096 C.3       4 UNK        -0.2001 
     24 N          24.4338   25.5645    0.7897 N.am      4 UNK        -0.4303 
     25 C          23.7439   24.7476    1.6028 C.2       3 UNK         0.5044 
     26 O          23.1422   25.1407    2.6032 O.2       3 UNK        -0.5152 
     27 CA         23.6732   23.2499    1.2425 C.3       3 UNK         0.0319 
     28 CB         22.2136   22.8080    1.0346 C.3       3 UNK        -0.2001 
     29 N          24.4304   22.9361    0.0304 N.am      3 UNK        -0.4354 
     30 C          25.6538   22.3951    0.0037 C.2       2 UNK         0.4964 
     31 O          26.2456   21.9761    0.9994 O.2       2 UNK        -0.5047 
     32 CA         26.3558   22.3289   -1.3678 C.3       2 UNK         0.0288 
     33 CB         25.5096   22.8662   -2.5465 C.3       2 UNK        -0.2113 
     34 N          27.6578   23.0043   -1.3427 N.am      2 UNK        -0.4145 
     35 C          27.9211   24.2603   -0.9503 C.2       1 UNK         0.5006 
     36 O          27.0564   25.0327   -0.5256 O.2       1 UNK        -0.5103 
     37 C          28.4327   28.2204    3.1063 C.2       5 UNK         0.5055 
     38 O          28.6939   28.6241    4.2409 O.2       5 UNK        -0.5220 
     39 N          28.5108   28.9808    2.0095 N.am      6 UNK        -0.4450 
     40 CA         28.8960   30.3890    1.9547 C.3       6 UNK         0.0367 
     41 CB         27.9000   31.1301    1.0481 C.3       6 UNK        -0.1929 
     42 C          30.3292   30.5799    1.4327 C.2       6 UNK         0.5070 
     43 O          30.8593   31.6855    1.5571 O.2       6 UNK        -0.5237 
     44 N          30.9358   29.5263    0.8640 N.am      7 UNK        -0.4739 
     45 CA         32.2961   29.5147    0.3151 C.3       7 UNK         0.0276 
     46 CB         32.6269   28.1038   -0.1990 C.3       7 UNK        -0.1927 
     47 C          33.3633   29.9947    1.3158 C.2       7 UNK         0.5013 
     48 O          33.2824   29.6621    2.5010 O.2       7 UNK        -0.5193 
     49 N          34.3218   30.7841    0.8070 N.am      8 UNK        -0.4253 
     50 CA         35.4071   31.4534    1.5388 C.3       8 UNK         0.0242 
     51 CB         36.4650   30.4298    1.9992 C.3       8 UNK        -0.2000 
     52 C          34.9013   32.3574    2.6834 C.2       8 UNK         0.4948 
     53 O          35.5007   32.3776    3.7599 O.2       8 UNK        -0.5275 
     54 N          33.7986   33.0780    2.4182 N.am      9 UNK        -0.4246 
     55 CA         33.0498   33.9351    3.3468 C.3       9 UNK         0.0261 
     56 CB         33.8825   35.1688    3.7584 C.3       9 UNK        -0.1959 
     57 C          32.4988   33.1407    4.5476 C.2       9 UNK         0.5033 
     58 O          32.6776   33.5535    5.6951 O.2       9 UNK        -0.5390 
     59 N          31.8437   32.0129    4.2344 N.am      10 UNK        -0.4215 
     60 CA         31.2836   31.0032    5.1376 C.3       10 UNK         0.0240 
     61 CB         30.0928   31.5767    5.9343 C.3       10 UNK        -0.1982 
     62 C          32.3651   30.3765    6.0350 C.2       10 UNK         0.4970 
     63 O          32.4531   30.7139    7.2176 O.2       10 UNK        -0.4916 
     64 N          33.1812   29.5020    5.4299 N.am      11 UNK        -0.4279 
     65 CA         34.3093   28.7802    6.0430 C.3       11 UNK         0.1003 
     66 C          34.0265   28.1242    7.4296 C.2       11 UNK         0.5709 
     67 N          35.0317   28.0502    8.2928 N.am      11 UNK        -0.7358 
     68 O          32.9281   27.6485    7.7136 O.2       11 UNK        -0.4999 
     69 C69        34.9432   27.7788    5.0342 C.3       12 UNK        -0.0954 
     70 S70        34.0477   26.2029    4.7964 S.3       12 UNK        -0.2268 
     71 C71        32.9518   26.6000    3.4039 C.3       12 UNK         0.0203 
     72 H72        29.3712   28.0076   -3.4143 H         1 UNK         0.0888 
     73 H73        28.1809   28.8226   -2.3957 H         1 UNK         0.0888 
     74 H74        29.9043   29.1076   -2.1408 H         1 UNK         0.0888 
     75 H75        29.4913   25.8417   -2.8574 H         1 UNK         0.3017 
     76 H76        29.7008   24.9927   -0.0393 H         1 UNK         0.0873 
     77 H77        31.3851   24.2141   -1.7232 H         1 UNK         0.0745 
     78 H78        30.1347   23.4519   -2.6519 H         1 UNK         0.0745 
     79 H79        32.8216   23.0710   -0.1668 H         1 UNK         0.0705 
     80 H80        32.4404   21.6841    0.8203 H         1 UNK         0.0705 
     81 H81        33.2478   24.8869    1.2983 H         1 UNK         0.1334 
     82 H82        30.7900   25.6408    4.7224 H         1 UNK         0.1417 
     83 H83        29.9587   22.2781    2.1937 H         1 UNK         0.1562 
     84 H84        29.2620   23.8473    5.4739 H         1 UNK         0.0748 
     85 H85        28.9974   22.4398    4.4826 H         1 UNK         0.0748 
     86 H86        28.5168   26.1265    4.9028 H         1 UNK         0.0940 
     87 H87        26.8106   26.3682    4.6909 H         1 UNK         0.0940 
     88 H88        28.7935   26.2777    2.3591 H         1 UNK         0.0703 
     89 H89        26.9723   26.1304    1.1101 H         1 UNK         0.3081 
     90 H90        23.6312   27.4068    1.3482 H         1 UNK         0.0719 
     91 H91        25.9019   27.3710   -0.7153 H         1 UNK         0.0809 
     92 H92        24.1848   27.5456   -1.0689 H         1 UNK         0.0809 
     93 H93        25.0292   28.7887   -0.1605 H         1 UNK         0.0809 
     94 H94        24.9933   25.1594    0.0489 H         1 UNK         0.2990 
     95 H95        24.0772   22.6973    2.0935 H         1 UNK         0.0690 
     96 H96        22.1509   21.7434    0.8080 H         1 UNK         0.0788 
     97 H97        21.7379   23.3538    0.2188 H         1 UNK         0.0788 
     98 H98        21.6190   22.9804    1.9329 H         1 UNK         0.0788 
     99 H99        24.0261   23.2415   -0.8437 H         1 UNK         0.2993 
    100 H100       26.5548   21.2723   -1.5536 H         1 UNK         0.0949 
    101 H101       26.0411   22.7447   -3.4906 H         1 UNK         0.0767 
    102 H102       24.5695   22.3215   -2.6444 H         1 UNK         0.0767 
    103 H103       25.2778   23.9269   -2.4396 H         1 UNK         0.0767 
    104 H104       28.4534   22.4290   -1.5883 H         1 UNK         0.3013 
    105 H105       28.3908   28.5081    1.1140 H         1 UNK         0.3121 
    106 H106       28.8474   30.8296    2.9524 H         1 UNK         0.0774 
    107 H107       28.1346   32.1942    0.9960 H         1 UNK         0.0815 
    108 H108       27.9151   30.7409    0.0291 H         1 UNK         0.0815 
    109 H109       26.8811   31.0413    1.4256 H         1 UNK         0.0815 
    110 H110       30.4078   28.6655    0.7763 H         1 UNK         0.2987 
    111 H111       32.2991   30.1981   -0.5365 H         1 UNK         0.0949 
    112 H112       33.6808   28.0128   -0.4662 H         1 UNK         0.0806 
    113 H113       32.4100   27.3408    0.5475 H         1 UNK         0.0806 
    114 H114       32.0525   27.8642   -1.0926 H         1 UNK         0.0806 
    115 H115       34.2867   30.9880   -0.1827 H         1 UNK         0.3010 
    116 H116       35.8912   32.1213    0.8245 H         1 UNK         0.0829 
    117 H117       36.8133   29.8153    1.1692 H         1 UNK         0.0813 
    118 H118       37.3377   30.9311    2.4197 H         1 UNK         0.0813 
    119 H119       36.0725   29.7664    2.7668 H         1 UNK         0.0813 
    120 H120       33.3736   32.9574    1.5088 H         1 UNK         0.3038 
    121 H121       32.1792   34.2964    2.7968 H         1 UNK         0.0769 
    122 H122       33.2859   35.8585    4.3567 H         1 UNK         0.0811 
    123 H123       34.2352   35.7188    2.8861 H         1 UNK         0.0811 
    124 H124       34.7522   34.8924    4.3554 H         1 UNK         0.0811 
    125 H125       31.7475   31.8021    3.2437 H         1 UNK         0.3204 
    126 H126       30.8971   30.2034    4.5046 H         1 UNK         0.0748 
    127 H127       29.6364   30.8037    6.5537 H         1 UNK         0.0771 
    128 H128       30.3941   32.3893    6.5960 H         1 UNK         0.0771 
    129 H129       29.3182   31.9562    5.2682 H         1 UNK         0.0771 
    130 H130       33.0790   29.3713    4.4276 H         1 UNK         0.2980 
    131 H131       35.0531   29.5591    6.2204 H         1 UNK         0.0545 
    132 H132       34.8749   27.6156    9.1886 H         1 UNK         0.3459 
    133 H133       35.9423   28.4197    8.0683 H         1 UNK         0.3459 
    134 H134       35.0781   28.2516    4.0629 H         1 UNK         0.0616 
    135 H135       35.9494   27.5234    5.3700 H         1 UNK         0.0616 
    136 H136       32.3065   27.4384    3.6683 H         1 UNK         0.0634 
    137 H137       33.5586   26.9184    2.5559 H         1 UNK         0.0634 
@<TRIPOS>BOND
     1    1    2 1    
     2    1   72 1    
     3    1   73 1    
     4    1   74 1    
     5    2    3 2    
     6    2    4 am   BACKBONE|DICT|INTERRES
     7    4    5 1    
     8    4   75 1    
     9    5    6 1    
    10    5   35 1    
    11    5   76 1    
    12    6    7 1    
    13    6   77 1    
    14    6   78 1    
    15    7    8 1    
    16    8    9 1    
    17    8   79 1    
    18    8   80 1    
    19    9   10 ar   
    20    9   14 ar   
    21   10   11 ar   
    22   10   81 1    
    23   11   12 ar   
    24   11   71 1    
    25   12   13 ar   
    26   12   82 1    
    27   13   14 ar   
    28   13   15 1    
    29   14   83 1    
    30   15   16 1    
    31   15   84 1    
    32   15   85 1    
    33   16   17 1    
    34   17   18 1    
    35   17   86 1    
    36   17   87 1    
    37   18   19 1    
    38   18   37 1    
    39   18   88 1    
    40   19   20 am   BACKBONE|DICT|INTERRES
    41   19   89 1    
    42   20   21 2    
    43   20   22 1    
    44   22   23 1    
    45   22   24 1    
    46   22   90 1    
    47   23   91 1    
    48   23   92 1    
    49   23   93 1    
    50   24   25 am   BACKBONE|DICT|INTERRES
    51   24   94 1    
    52   25   26 2    
    53   25   27 1    
    54   27   28 1    
    55   27   29 1    
    56   27   95 1    
    57   28   96 1    
    58   28   97 1    
    59   28   98 1    
    60   29   30 am   BACKBONE|DICT|INTERRES
    61   29   99 1    
    62   30   31 2    
    63   30   32 1    
    64   32   33 1    
    65   32   34 1    
    66   32  100 1    
    67   33  101 1    
    68   33  102 1    
    69   33  103 1    
    70   34   35 am   BACKBONE|DICT|INTERRES
    71   34  104 1    
    72   35   36 2    
    73   37   38 2    
    74   37   39 am   BACKBONE|DICT|INTERRES
    75   39   40 1    
    76   39  105 1    
    77   40   41 1    
    78   40   42 1    
    79   40  106 1    
    80   41  107 1    
    81   41  108 1    
    82   41  109 1    
    83   42   43 2    
    84   42   44 am   BACKBONE|DICT|INTERRES
    85   44   45 1    
    86   44  110 1    
    87   45   46 1    
    88   45   47 1    
    89   45  111 1    
    90   46  112 1    
    91   46  113 1    
    92   46  114 1    
    93   47   48 2    
    94   47   49 am   BACKBONE|DICT|INTERRES
    95   49   50 1    
    96   49  115 1    
    97   50   51 1    
    98   50   52 1    
    99   50  116 1    
   100   51  117 1    
   101   51  118 1    
   102   51  119 1    
   103   52   53 2    
   104   52   54 am   BACKBONE|DICT|INTERRES
   105   54   55 1    
   106   54  120 1    
   107   55   56 1    
   108   55   57 1    
   109   55  121 1    
   110   56  122 1    
   111   56  123 1    
   112   56  124 1    
   113   57   58 2    
   114   57   59 am   BACKBONE|DICT|INTERRES
   115   59   60 1    
   116   59  125 1    
   117   60   61 1    
   118   60   62 1    
   119   60  126 1    
   120   61  127 1    
   121   61  128 1    
   122   61  129 1    
   123   62   63 2    
   124   62   64 am   BACKBONE|DICT|INTERRES
   125   64   65 1    
   126   64  130 1    
   127   65   66 1    
   128   65   69 1    
   129   65  131 1    
   130   66   67 am   BACKBONE|DICT|INTERRES
   131   66   68 2    
   132   67  132 1    
   133   67  133 1    
   134   69   70 1    
   135   69  134 1    
   136   69  135 1    
   137   70   71 1    
   138   71  136 1    
   139   71  137 1    
@<TRIPOS>SUBSTRUCTURE
     1 UNK         1 GROUP             0       ****    0 ROOT    
