@<TRIPOS>MOLECULE
3R136
137   139    1
SMALL
USER_CHARGES


@<TRIPOS>ATOM
      1 CA         28.3600   23.0296   -2.6608 C.3       0 UNK        -0.1979 
      2 C          28.2508   23.2475   -1.1605 C.2       0 UNK         0.4864 
      3 O          27.7563   24.2926   -0.7330 O.2       0 UNK        -0.5359 
      4 N          28.6936   22.2662   -0.3597 N.am      1 UNK        -0.4318 
      5 CA         28.7595   22.3124    1.1095 C.3       1 UNK         0.0824 
      6 C6         29.3766   21.0292    1.7219 C.3       12 UNK        -0.0944 
      7 S7         30.9730   20.5520    0.9815 S.3       12 UNK        -0.2672 
      8 C8         32.1625   21.3349    2.1200 C.3       12 UNK         0.0333 
      9 C9         32.2221   22.8481    1.9512 C.ar      12 UNK        -0.0807 
     10 C10        32.0407   23.6955    3.0482 C.ar      12 UNK        -0.0894 
     11 C11        32.1289   25.0859    2.9089 C.ar      12 UNK        -0.0804 
     12 C12        32.3751   25.6241    1.6359 C.ar      12 UNK        -0.0824 
     13 C13        32.5773   24.7856    0.5354 C.ar      12 UNK        -0.0762 
     14 C14        32.5016   23.4020    0.7004 C.ar      12 UNK        -0.0782 
     15 C15        32.9235   25.3541   -0.8309 C.3       12 UNK         0.0230 
     16 S16        31.4615   25.4519   -1.9078 S.3       12 UNK        -0.2608 
     17 C17        31.0086   27.2113   -1.7586 C.3       12 UNK        -0.0989 
     18 CA         29.4852   27.4175   -1.5454 C.3       5 UNK         0.0716 
     19 N          29.0022   26.8172   -0.2923 N.am      5 UNK        -0.4135 
     20 C          29.2332   27.2560    0.9554 C.2       4 UNK         0.5031 
     21 O          29.9673   28.2103    1.2098 O.2       4 UNK        -0.5229 
     22 CA         28.4377   26.5784    2.0925 C.3       4 UNK         0.0329 
     23 CB         28.2882   27.4846    3.3306 C.3       4 UNK        -0.2001 
     24 N          27.1155   26.0990    1.6688 N.am      4 UNK        -0.4303 
     25 C          26.1424   26.8041    1.0655 C.2       3 UNK         0.5044 
     26 O          26.2174   28.0145    0.8474 O.2       3 UNK        -0.5152 
     27 CA         24.9125   26.0310    0.5534 C.3       3 UNK         0.0319 
     28 CB         24.6441   26.3588   -0.9267 C.3       3 UNK        -0.2001 
     29 N          25.0981   24.5841    0.6770 N.am      3 UNK        -0.4354 
     30 C          24.4786   23.7952    1.5651 C.2       2 UNK         0.4964 
     31 O          23.5997   24.1842    2.3347 O.2       2 UNK        -0.5047 
     32 CA         24.9262   22.3215    1.6243 C.3       2 UNK         0.0288 
     33 CB         23.9826   21.4408    0.7892 C.3       2 UNK        -0.2113 
     34 N          26.3075   22.0984    1.1823 N.am      2 UNK        -0.4145 
     35 C          27.4005   22.5977    1.7802 C.2       1 UNK         0.5006 
     36 O          27.3635   23.2955    2.7938 O.2       1 UNK        -0.5103 
     37 C          29.0797   28.9064   -1.7186 C.2       5 UNK         0.5055 
     38 O          29.7323   29.6227   -2.4803 O.2       5 UNK        -0.5220 
     39 N          28.0383   29.3606   -0.9987 N.am      6 UNK        -0.4450 
     40 CA         27.6301   30.7598   -0.8145 C.3       6 UNK         0.0367 
     41 CB         27.1147   31.3714   -2.1346 C.3       6 UNK        -0.1929 
     42 C          28.7071   31.6324   -0.1275 C.2       6 UNK         0.5070 
     43 O          28.6837   32.8550   -0.2760 O.2       6 UNK        -0.5237 
     44 N          29.6178   31.0018    0.6263 N.am      7 UNK        -0.4739 
     45 CA         30.7249   31.6235    1.3527 C.3       7 UNK         0.0276 
     46 CB         32.0523   31.1729    0.7132 C.3       7 UNK        -0.1927 
     47 C          30.6412   31.2538    2.8427 C.2       7 UNK         0.5013 
     48 O          31.6672   30.9697    3.4641 O.2       7 UNK        -0.5193 
     49 N          29.4121   31.2546    3.3830 N.am      8 UNK        -0.4253 
     50 CA         29.0704   30.8959    4.7627 C.3       8 UNK         0.0242 
     51 CB         27.5674   31.1244    4.9885 C.3       8 UNK        -0.2000 
     52 C          29.8978   31.6608    5.8082 C.2       8 UNK         0.4948 
     53 O          30.1538   32.8551    5.6351 O.2       8 UNK        -0.5275 
     54 N          30.3314   30.9392    6.8499 N.am      9 UNK        -0.4246 
     55 CA         31.2657   31.3374    7.9125 C.3       9 UNK         0.0261 
     56 CB         30.7620   32.5583    8.7077 C.3       9 UNK        -0.1959 
     57 C          32.7138   31.5392    7.4271 C.2       9 UNK         0.5033 
     58 O          33.6323   31.0692    8.0994 O.2       9 UNK        -0.5390 
     59 N          32.9057   32.1901    6.2709 N.am      10 UNK        -0.4215 
     60 CA         34.2080   32.4283    5.6394 C.3       10 UNK         0.0240 
     61 CB         34.0420   33.3562    4.4249 C.3       10 UNK        -0.1982 
     62 C          34.9442   31.1329    5.2526 C.2       10 UNK         0.4970 
     63 O          36.1624   31.0667    5.4227 O.2       10 UNK        -0.4916 
     64 N          34.2002   30.1211    4.7854 N.am      11 UNK        -0.4279 
     65 CA         34.7023   28.7552    4.5613 C.3       11 UNK         0.1003 
     66 C          34.9589   27.9186    5.8523 C.2       11 UNK         0.5709 
     67 N          34.6724   28.4132    7.0518 N.am      11 UNK        -0.7358 
     68 O          35.4494   26.7953    5.7653 O.2       11 UNK        -0.4999 
     69 C69        33.8550   27.9891    3.5115 C.3       12 UNK        -0.0954 
     70 S70        32.1061   27.7490    3.9797 S.3       12 UNK        -0.2268 
     71 C71        31.9788   25.9374    4.1753 C.3       12 UNK         0.0203 
     72 H72        27.3710   23.0606   -3.1168 H         1 UNK         0.0888 
     73 H73        28.9666   23.8171   -3.1071 H         1 UNK         0.0888 
     74 H74        28.8181   22.0707   -2.9017 H         1 UNK         0.0888 
     75 H75        29.0998   21.4391   -0.7745 H         1 UNK         0.3017 
     76 H76        29.4111   23.1526    1.3587 H         1 UNK         0.0873 
     77 H77        29.5079   21.1456    2.7997 H         1 UNK         0.0745 
     78 H78        28.6983   20.1832    1.5931 H         1 UNK         0.0745 
     79 H79        31.9170   21.0598    3.1469 H         1 UNK         0.0705 
     80 H80        33.1539   20.9251    1.9227 H         1 UNK         0.0705 
     81 H81        31.8479   23.2703    4.0240 H         1 UNK         0.1334 
     82 H82        32.4321   26.6932    1.4911 H         1 UNK         0.1417 
     83 H83        32.6606   22.7520   -0.1495 H         1 UNK         0.1562 
     84 H84        33.6610   24.7097   -1.3121 H         1 UNK         0.0748 
     85 H85        33.4041   26.3289   -0.7367 H         1 UNK         0.0748 
     86 H86        31.3471   27.6923   -2.6781 H         1 UNK         0.0940 
     87 H87        31.5661   27.6846   -0.9486 H         1 UNK         0.0940 
     88 H88        28.9637   26.8875   -2.3438 H         1 UNK         0.0703 
     89 H89        28.4200   25.9889   -0.4063 H         1 UNK         0.3081 
     90 H90        29.0123   25.6982    2.3847 H         1 UNK         0.0719 
     91 H91        29.2617   27.7449    3.7410 H         1 UNK         0.0809 
     92 H92        27.7783   28.4171    3.0879 H         1 UNK         0.0809 
     93 H93        27.7274   26.9883    4.1223 H         1 UNK         0.0809 
     94 H94        26.9553   25.1105    1.8217 H         1 UNK         0.2990 
     95 H95        24.0550   26.3634    1.1417 H         1 UNK         0.0690 
     96 H96        23.7715   25.8217   -1.2986 H         1 UNK         0.0788 
     97 H97        25.4943   26.0948   -1.5575 H         1 UNK         0.0788 
     98 H98        24.4502   27.4232   -1.0671 H         1 UNK         0.0788 
     99 H99        25.8338   24.1901    0.0994 H         1 UNK         0.2993 
    100 H100       24.8582   22.0063    2.6679 H         1 UNK         0.0949 
    101 H101       22.9474   21.5622    1.1119 H         1 UNK         0.0767 
    102 H102       24.0253   21.6950   -0.2708 H         1 UNK         0.0767 
    103 H103       24.2295   20.3839    0.8928 H         1 UNK         0.0767 
    104 H104       26.4339   21.5450    0.3470 H         1 UNK         0.3013 
    105 H105       27.5433   28.7034   -0.4003 H         1 UNK         0.3121 
    106 H106       26.7892   30.7298   -0.1200 H         1 UNK         0.0774 
    107 H107       27.9183   31.5155   -2.8571 H         1 UNK         0.0815 
    108 H108       26.6586   32.3467   -1.9611 H         1 UNK         0.0815 
    109 H109       26.3565   30.7388   -2.5957 H         1 UNK         0.0815 
    110 H110       29.5691   29.9886    0.7251 H         1 UNK         0.2987 
    111 H111       30.6635   32.7120    1.2934 H         1 UNK         0.0949 
    112 H112       32.1904   30.0942    0.8026 H         1 UNK         0.0806 
    113 H113       32.0894   31.4291   -0.3456 H         1 UNK         0.0806 
    114 H114       32.9045   31.6536    1.1951 H         1 UNK         0.0806 
    115 H115       28.6450   31.5196    2.7841 H         1 UNK         0.3010 
    116 H116       29.2816   29.8312    4.8715 H         1 UNK         0.0829 
    117 H117       27.2751   30.8365    5.9993 H         1 UNK         0.0813 
    118 H118       27.2971   32.1732    4.8579 H         1 UNK         0.0813 
    119 H119       26.9649   30.5331    4.2987 H         1 UNK         0.0813 
    120 H120       30.0684   29.9632    6.8747 H         1 UNK         0.3038 
    121 H121       31.2890   30.4932    8.6038 H         1 UNK         0.0769 
    122 H122       30.7532   33.4678    8.1065 H         1 UNK         0.0811 
    123 H123       31.4045   32.7498    9.5681 H         1 UNK         0.0811 
    124 H124       29.7530   32.3964    9.0865 H         1 UNK         0.0811 
    125 H125       32.0796   32.5266    5.7828 H         1 UNK         0.3204 
    126 H126       34.8296   32.9460    6.3729 H         1 UNK         0.0748 
    127 H127       35.0089   33.5825    3.9736 H         1 UNK         0.0771 
    128 H128       33.4203   32.9070    3.6507 H         1 UNK         0.0771 
    129 H129       33.5879   34.3053    4.7100 H         1 UNK         0.0771 
    130 H130       33.2140   30.2746    4.5956 H         1 UNK         0.2980 
    131 H131       35.6916   28.8639    4.1132 H         1 UNK         0.0545 
    132 H132       34.8575   27.8498    7.8659 H         1 UNK         0.3459 
    133 H133       34.3075   29.3506    7.1661 H         1 UNK         0.3459 
    134 H134       33.8639   28.5418    2.5709 H         1 UNK         0.0616 
    135 H135       34.3126   27.0244    3.2865 H         1 UNK         0.0616 
    136 H136       31.0049   25.7237    4.6176 H         1 UNK         0.0634 
    137 H137       32.7253   25.6212    4.9054 H         1 UNK         0.0634 
@<TRIPOS>BOND
     1    1    2 1    
     2    1   72 1    
     3    1   73 1    
     4    1   74 1    
     5    2    3 2    
     6    2    4 am   BACKBONE|DICT|INTERRES
     7    4    5 1    
     8    4   75 1    
     9    5    6 1    
    10    5   35 1    
    11    5   76 1    
    12    6    7 1    
    13    6   77 1    
    14    6   78 1    
    15    7    8 1    
    16    8    9 1    
    17    8   79 1    
    18    8   80 1    
    19    9   10 ar   
    20    9   14 ar   
    21   10   11 ar   
    22   10   81 1    
    23   11   12 ar   
    24   11   71 1    
    25   12   13 ar   
    26   12   82 1    
    27   13   14 ar   
    28   13   15 1    
    29   14   83 1    
    30   15   16 1    
    31   15   84 1    
    32   15   85 1    
    33   16   17 1    
    34   17   18 1    
    35   17   86 1    
    36   17   87 1    
    37   18   19 1    
    38   18   37 1    
    39   18   88 1    
    40   19   20 am   BACKBONE|DICT|INTERRES
    41   19   89 1    
    42   20   21 2    
    43   20   22 1    
    44   22   23 1    
    45   22   24 1    
    46   22   90 1    
    47   23   91 1    
    48   23   92 1    
    49   23   93 1    
    50   24   25 am   BACKBONE|DICT|INTERRES
    51   24   94 1    
    52   25   26 2    
    53   25   27 1    
    54   27   28 1    
    55   27   29 1    
    56   27   95 1    
    57   28   96 1    
    58   28   97 1    
    59   28   98 1    
    60   29   30 am   BACKBONE|DICT|INTERRES
    61   29   99 1    
    62   30   31 2    
    63   30   32 1    
    64   32   33 1    
    65   32   34 1    
    66   32  100 1    
    67   33  101 1    
    68   33  102 1    
    69   33  103 1    
    70   34   35 am   BACKBONE|DICT|INTERRES
    71   34  104 1    
    72   35   36 2    
    73   37   38 2    
    74   37   39 am   BACKBONE|DICT|INTERRES
    75   39   40 1    
    76   39  105 1    
    77   40   41 1    
    78   40   42 1    
    79   40  106 1    
    80   41  107 1    
    81   41  108 1    
    82   41  109 1    
    83   42   43 2    
    84   42   44 am   BACKBONE|DICT|INTERRES
    85   44   45 1    
    86   44  110 1    
    87   45   46 1    
    88   45   47 1    
    89   45  111 1    
    90   46  112 1    
    91   46  113 1    
    92   46  114 1    
    93   47   48 2    
    94   47   49 am   BACKBONE|DICT|INTERRES
    95   49   50 1    
    96   49  115 1    
    97   50   51 1    
    98   50   52 1    
    99   50  116 1    
   100   51  117 1    
   101   51  118 1    
   102   51  119 1    
   103   52   53 2    
   104   52   54 am   BACKBONE|DICT|INTERRES
   105   54   55 1    
   106   54  120 1    
   107   55   56 1    
   108   55   57 1    
   109   55  121 1    
   110   56  122 1    
   111   56  123 1    
   112   56  124 1    
   113   57   58 2    
   114   57   59 am   BACKBONE|DICT|INTERRES
   115   59   60 1    
   116   59  125 1    
   117   60   61 1    
   118   60   62 1    
   119   60  126 1    
   120   61  127 1    
   121   61  128 1    
   122   61  129 1    
   123   62   63 2    
   124   62   64 am   BACKBONE|DICT|INTERRES
   125   64   65 1    
   126   64  130 1    
   127   65   66 1    
   128   65   69 1    
   129   65  131 1    
   130   66   67 am   BACKBONE|DICT|INTERRES
   131   66   68 2    
   132   67  132 1    
   133   67  133 1    
   134   69   70 1    
   135   69  134 1    
   136   69  135 1    
   137   70   71 1    
   138   71  136 1    
   139   71  137 1    
@<TRIPOS>SUBSTRUCTURE
     1 UNK         1 GROUP             0       ****    0 ROOT    
