@<TRIPOS>MOLECULE
3R136
137   139    1
SMALL
USER_CHARGES


@<TRIPOS>ATOM
      1 CA         26.4848   28.5603    2.4733 C.3       0 UNK        -0.1979 
      2 C          26.4649   27.0418    2.5442 C.2       0 UNK         0.4864 
      3 O          25.4154   26.4652    2.8374 O.2       0 UNK        -0.5359 
      4 N          27.6023   26.3819    2.2772 N.am      1 UNK        -0.4318 
      5 CA         27.7281   24.9203    2.2404 C.3       1 UNK         0.0824 
      6 C6         29.1851   24.4581    2.0226 C.3       12 UNK        -0.0944 
      7 S7         30.2792   24.8848    3.4170 S.3       12 UNK        -0.2672 
      8 C8         31.8466   24.1123    2.8966 C.3       12 UNK         0.0333 
      9 C9         32.4992   24.8446    1.7299 C.ar      12 UNK        -0.0807 
     10 C10        33.4533   25.8412    1.9633 C.ar      12 UNK        -0.0894 
     11 C11        34.0593   26.5127    0.8940 C.ar      12 UNK        -0.0804 
     12 C12        33.6952   26.1812   -0.4149 C.ar      12 UNK        -0.0824 
     13 C13        32.7456   25.1866   -0.6618 C.ar      12 UNK        -0.0762 
     14 C14        32.1643   24.5106    0.4138 C.ar      12 UNK        -0.0782 
     15 C15        32.3645   24.8351   -2.0926 C.3       12 UNK         0.0230 
     16 S16        31.3146   26.1151   -2.8505 S.3       12 UNK        -0.2608 
     17 C17        29.7235   25.8345   -2.0022 C.3       12 UNK        -0.0989 
     18 CA         28.7155   26.9925   -2.2386 C.3       5 UNK         0.0716 
     19 N          27.3381   26.4948   -2.2527 N.am      5 UNK        -0.4135 
     20 C          26.3978   26.8949   -3.1188 C.2       4 UNK         0.5031 
     21 O          26.5960   27.7143   -4.0178 O.2       4 UNK        -0.5229 
     22 CA         25.0007   26.2775   -2.9847 C.3       4 UNK         0.0329 
     23 CB         24.9527   24.8926   -3.6532 C.3       4 UNK        -0.2001 
     24 N          24.5722   26.1562   -1.5907 N.am      4 UNK        -0.4303 
     25 C          23.3592   26.5022   -1.1336 C.2       3 UNK         0.5044 
     26 O          22.5093   27.0738   -1.8196 O.2       3 UNK        -0.5152 
     27 CA         23.0276   26.1328    0.3302 C.3       3 UNK         0.0319 
     28 CB         21.5144   25.9510    0.5752 C.3       3 UNK        -0.2001 
     29 N          23.7784   24.9689    0.8178 N.am      3 UNK        -0.4354 
     30 C          23.7913   23.7284    0.2966 C.2       2 UNK         0.4964 
     31 O          23.0215   23.3541   -0.5891 O.2       2 UNK        -0.5047 
     32 CA         24.8643   22.7461    0.8192 C.3       2 UNK         0.0288 
     33 CB         25.4489   21.8761   -0.3149 C.3       2 UNK        -0.2113 
     34 N          25.9482   23.3826    1.5830 N.am      2 UNK        -0.4145 
     35 C          26.8005   24.3296    1.1596 C.2       1 UNK         0.5006 
     36 O          26.8289   24.7808    0.0077 O.2       1 UNK        -0.5103 
     37 C          28.8592   28.1430   -1.2181 C.2       5 UNK         0.5055 
     38 O          27.8595   28.6516   -0.7023 O.2       5 UNK        -0.5220 
     39 N          30.1102   28.5367   -0.9468 N.am      6 UNK        -0.4450 
     40 CA         30.4900   29.4907    0.0984 C.3       6 UNK         0.0367 
     41 CB         31.9782   29.8333   -0.0646 C.3       6 UNK        -0.1929 
     42 C          30.2036   28.9394    1.5076 C.2       6 UNK         0.5070 
     43 O          30.0377   27.7311    1.6748 O.2       6 UNK        -0.5237 
     44 N          30.1066   29.8345    2.4961 N.am      7 UNK        -0.4739 
     45 CA         29.8036   29.4776    3.8822 C.3       7 UNK         0.0276 
     46 CB         29.1846   30.6935    4.5913 C.3       7 UNK        -0.1927 
     47 C          31.0627   29.0164    4.6255 C.2       7 UNK         0.5013 
     48 O          32.0849   29.7032    4.5658 O.2       7 UNK        -0.5193 
     49 N          30.9414   27.9259    5.3958 N.am      8 UNK        -0.4253 
     50 CA         31.9982   27.3825    6.2592 C.3       8 UNK         0.0242 
     51 CB         31.4940   26.1074    6.9536 C.3       8 UNK        -0.2000 
     52 C          32.5247   28.3844    7.3030 C.2       8 UNK         0.4948 
     53 O          33.7114   28.3531    7.6248 O.2       8 UNK        -0.5275 
     54 N          31.6478   29.2826    7.7746 N.am      9 UNK        -0.4246 
     55 CA         31.9820   30.3913    8.6714 C.3       9 UNK         0.0261 
     56 CB         30.6828   31.0411    9.1751 C.3       9 UNK        -0.1959 
     57 C          32.9002   31.4520    8.0333 C.2       9 UNK         0.5033 
     58 O          33.6337   32.1179    8.7656 O.2       9 UNK        -0.5390 
     59 N          32.8497   31.5954    6.7009 N.am      10 UNK        -0.4215 
     60 CA         33.7354   32.4712    5.9337 C.3       10 UNK         0.0240 
     61 CB         32.9908   33.0177    4.7032 C.3       10 UNK        -0.1982 
     62 C          35.0107   31.7246    5.5166 C.2       10 UNK         0.4970 
     63 O          36.0998   32.2902    5.6214 O.2       10 UNK        -0.4916 
     64 N          34.8529   30.4774    5.0538 N.am      11 UNK        -0.4279 
     65 CA         35.9496   29.5981    4.6224 C.3       11 UNK         0.1003 
     66 C          36.9043   29.1539    5.7655 C.2       11 UNK         0.5709 
     67 N          36.4239   28.9394    6.9833 N.am      11 UNK        -0.7358 
     68 O          38.1041   29.0096    5.5422 O.2       11 UNK        -0.4999 
     69 C69        35.4165   28.3740    3.8377 C.3       12 UNK        -0.0954 
     70 S70        34.6003   28.8786    2.2854 S.3       12 UNK        -0.2268 
     71 C71        35.1293   27.5745    1.1279 C.3       12 UNK         0.0203 
     72 H72        27.3676   28.9303    1.9568 H         1 UNK         0.0888 
     73 H73        26.4646   28.9862    3.4758 H         1 UNK         0.0888 
     74 H74        25.6114   28.9205    1.9305 H         1 UNK         0.0888 
     75 H75        28.4514   26.8926    2.0347 H         1 UNK         0.3017 
     76 H76        27.4010   24.5496    3.2143 H         1 UNK         0.0873 
     77 H77        29.5794   24.9193    1.1202 H         1 UNK         0.0745 
     78 H78        29.2337   23.3773    1.8752 H         1 UNK         0.0745 
     79 H79        32.5259   24.1003    3.7503 H         1 UNK         0.0705 
     80 H80        31.6703   23.0673    2.6370 H         1 UNK         0.0705 
     81 H81        33.7233   26.0946    2.9786 H         1 UNK         0.1334 
     82 H82        34.1532   26.6942   -1.2497 H         1 UNK         0.1417 
     83 H83        31.4401   23.7297    0.2273 H         1 UNK         0.1562 
     84 H84        31.8543   23.8716   -2.1384 H         1 UNK         0.0748 
     85 H85        33.2719   24.7270   -2.6887 H         1 UNK         0.0748 
     86 H86        29.8895   25.6670   -0.9388 H         1 UNK         0.0940 
     87 H87        29.3229   24.8963   -2.3906 H         1 UNK         0.0940 
     88 H88        28.9328   27.4293   -3.2157 H         1 UNK         0.0703 
     89 H89        27.0999   25.8512   -1.5029 H         1 UNK         0.3081 
     90 H90        24.3193   26.9358   -3.5280 H         1 UNK         0.0719 
     91 H91        25.6055   24.1782   -3.1499 H         1 UNK         0.0809 
     92 H92        23.9419   24.4842   -3.6412 H         1 UNK         0.0809 
     93 H93        25.2684   24.9489   -4.6959 H         1 UNK         0.0809 
     94 H94        25.2168   25.7057   -0.9510 H         1 UNK         0.2990 
     95 H95        23.3590   26.9790    0.9335 H         1 UNK         0.0690 
     96 H96        21.3092   25.6973    1.6151 H         1 UNK         0.0788 
     97 H97        21.0938   25.1645   -0.0521 H         1 UNK         0.0788 
     98 H98        20.9686   26.8690    0.3541 H         1 UNK         0.0788 
     99 H99        24.4368   25.1833    1.5610 H         1 UNK         0.2993 
    100 H100       24.3471   22.0831    1.5145 H         1 UNK         0.0949 
    101 H101       24.6712   21.2812   -0.7956 H         1 UNK         0.0767 
    102 H102       25.9181   22.4824   -1.0905 H         1 UNK         0.0767 
    103 H103       26.1967   21.1797    0.0644 H         1 UNK         0.0767 
    104 H104       25.9950   23.1109    2.5560 H         1 UNK         0.3013 
    105 H105       30.8648   28.0262   -1.3860 H         1 UNK         0.3121 
    106 H106       29.8997   30.3990   -0.0392 H         1 UNK         0.0774 
    107 H107       32.1772   30.2945   -1.0319 H         1 UNK         0.0815 
    108 H108       32.6009   28.9427    0.0165 H         1 UNK         0.0815 
    109 H109       32.3109   30.5334    0.7029 H         1 UNK         0.0815 
    110 H110       30.3023   30.8070    2.3081 H         1 UNK         0.2987 
    111 H111       29.0724   28.6668    3.8922 H         1 UNK         0.0949 
    112 H112       29.8723   31.5402    4.6191 H         1 UNK         0.0806 
    113 H113       28.2720   31.0206    4.0926 H         1 UNK         0.0806 
    114 H114       28.9200   30.4546    5.6221 H         1 UNK         0.0806 
    115 H115       30.0726   27.4111    5.3766 H         1 UNK         0.3010 
    116 H116       32.8350   27.1092    5.6150 H         1 UNK         0.0829 
    117 H117       31.2252   25.3387    6.2298 H         1 UNK         0.0813 
    118 H118       32.2660   25.6832    7.5974 H         1 UNK         0.0813 
    119 H119       30.6209   26.3030    7.5771 H         1 UNK         0.0813 
    120 H120       30.6889   29.2190    7.4659 H         1 UNK         0.3038 
    121 H121       32.5130   29.9756    9.5306 H         1 UNK         0.0769 
    122 H122       30.0955   31.4594    8.3565 H         1 UNK         0.0811 
    123 H123       30.8980   31.8545    9.8697 H         1 UNK         0.0811 
    124 H124       30.0581   30.3225    9.7059 H         1 UNK         0.0811 
    125 H125       32.2701   30.9639    6.1597 H         1 UNK         0.3204 
    126 H126       34.0299   33.3241    6.5493 H         1 UNK         0.0748 
    127 H127       32.0953   33.5667    4.9946 H         1 UNK         0.0771 
    128 H128       33.6241   33.7054    4.1412 H         1 UNK         0.0771 
    129 H129       32.6885   32.2241    4.0191 H         1 UNK         0.0771 
    130 H130       33.9137   30.1086    4.9365 H         1 UNK         0.2980 
    131 H131       36.5640   30.1811    3.9331 H         1 UNK         0.0545 
    132 H132       37.0554   28.6598    7.7159 H         1 UNK         0.3459 
    133 H133       35.4231   28.9516    7.1624 H         1 UNK         0.3459 
    134 H134       36.2343   27.6898    3.6073 H         1 UNK         0.0616 
    135 H135       34.7064   27.8100    4.4421 H         1 UNK         0.0616 
    136 H136       36.0455   27.0931    1.4697 H         1 UNK         0.0634 
    137 H137       35.3843   28.0636    0.1867 H         1 UNK         0.0634 
@<TRIPOS>BOND
     1    1    2 1    
     2    1   72 1    
     3    1   73 1    
     4    1   74 1    
     5    2    3 2    
     6    2    4 am   BACKBONE|DICT|INTERRES
     7    4    5 1    
     8    4   75 1    
     9    5    6 1    
    10    5   35 1    
    11    5   76 1    
    12    6    7 1    
    13    6   77 1    
    14    6   78 1    
    15    7    8 1    
    16    8    9 1    
    17    8   79 1    
    18    8   80 1    
    19    9   10 ar   
    20    9   14 ar   
    21   10   11 ar   
    22   10   81 1    
    23   11   12 ar   
    24   11   71 1    
    25   12   13 ar   
    26   12   82 1    
    27   13   14 ar   
    28   13   15 1    
    29   14   83 1    
    30   15   16 1    
    31   15   84 1    
    32   15   85 1    
    33   16   17 1    
    34   17   18 1    
    35   17   86 1    
    36   17   87 1    
    37   18   19 1    
    38   18   37 1    
    39   18   88 1    
    40   19   20 am   BACKBONE|DICT|INTERRES
    41   19   89 1    
    42   20   21 2    
    43   20   22 1    
    44   22   23 1    
    45   22   24 1    
    46   22   90 1    
    47   23   91 1    
    48   23   92 1    
    49   23   93 1    
    50   24   25 am   BACKBONE|DICT|INTERRES
    51   24   94 1    
    52   25   26 2    
    53   25   27 1    
    54   27   28 1    
    55   27   29 1    
    56   27   95 1    
    57   28   96 1    
    58   28   97 1    
    59   28   98 1    
    60   29   30 am   BACKBONE|DICT|INTERRES
    61   29   99 1    
    62   30   31 2    
    63   30   32 1    
    64   32   33 1    
    65   32   34 1    
    66   32  100 1    
    67   33  101 1    
    68   33  102 1    
    69   33  103 1    
    70   34   35 am   BACKBONE|DICT|INTERRES
    71   34  104 1    
    72   35   36 2    
    73   37   38 2    
    74   37   39 am   BACKBONE|DICT|INTERRES
    75   39   40 1    
    76   39  105 1    
    77   40   41 1    
    78   40   42 1    
    79   40  106 1    
    80   41  107 1    
    81   41  108 1    
    82   41  109 1    
    83   42   43 2    
    84   42   44 am   BACKBONE|DICT|INTERRES
    85   44   45 1    
    86   44  110 1    
    87   45   46 1    
    88   45   47 1    
    89   45  111 1    
    90   46  112 1    
    91   46  113 1    
    92   46  114 1    
    93   47   48 2    
    94   47   49 am   BACKBONE|DICT|INTERRES
    95   49   50 1    
    96   49  115 1    
    97   50   51 1    
    98   50   52 1    
    99   50  116 1    
   100   51  117 1    
   101   51  118 1    
   102   51  119 1    
   103   52   53 2    
   104   52   54 am   BACKBONE|DICT|INTERRES
   105   54   55 1    
   106   54  120 1    
   107   55   56 1    
   108   55   57 1    
   109   55  121 1    
   110   56  122 1    
   111   56  123 1    
   112   56  124 1    
   113   57   58 2    
   114   57   59 am   BACKBONE|DICT|INTERRES
   115   59   60 1    
   116   59  125 1    
   117   60   61 1    
   118   60   62 1    
   119   60  126 1    
   120   61  127 1    
   121   61  128 1    
   122   61  129 1    
   123   62   63 2    
   124   62   64 am   BACKBONE|DICT|INTERRES
   125   64   65 1    
   126   64  130 1    
   127   65   66 1    
   128   65   69 1    
   129   65  131 1    
   130   66   67 am   BACKBONE|DICT|INTERRES
   131   66   68 2    
   132   67  132 1    
   133   67  133 1    
   134   69   70 1    
   135   69  134 1    
   136   69  135 1    
   137   70   71 1    
   138   71  136 1    
   139   71  137 1    
@<TRIPOS>SUBSTRUCTURE
     1 UNK         1 GROUP             0       ****    0 ROOT    
