@<TRIPOS>MOLECULE
3R136
137   139    1
SMALL
USER_CHARGES


@<TRIPOS>ATOM
      1 CA         33.3388   22.9943   -4.1555 C.3       0 UNK        -0.1979 
      2 C          33.6067   23.7274   -2.8491 C.2       0 UNK         0.4864 
      3 O          34.7503   23.7623   -2.3917 O.2       0 UNK        -0.5359 
      4 N          32.5649   24.3142   -2.2519 N.am      1 UNK        -0.4318 
      5 CA         32.6235   25.0781   -1.0058 C.3       1 UNK         0.0824 
      6 C6         32.7810   24.1949    0.2658 C.3       12 UNK        -0.0944 
      7 S7         31.4517   22.9651    0.4986 S.3       12 UNK        -0.2672 
      8 C8         31.7174   22.4910    2.2347 C.3       12 UNK         0.0333 
      9 C9         30.8654   23.3198    3.1853 C.ar      12 UNK        -0.0807 
     10 C10        31.3549   24.5100    3.7330 C.ar      12 UNK        -0.0894 
     11 C11        30.5761   25.2490    4.6294 C.ar      12 UNK        -0.0804 
     12 C12        29.3060   24.7854    4.9878 C.ar      12 UNK        -0.0824 
     13 C13        28.8109   23.5918    4.4544 C.ar      12 UNK        -0.0762 
     14 C14        29.5910   22.8706    3.5457 C.ar      12 UNK        -0.0782 
     15 C15        27.4572   23.0487    4.8910 C.3       12 UNK         0.0230 
     16 S16        26.1213   23.5136    3.7453 S.3       12 UNK        -0.2608 
     17 C17        25.7547   25.2277    4.2583 C.3       12 UNK        -0.0989 
     18 CA         26.1192   26.2707    3.1659 C.3       5 UNK         0.0716 
     19 N          25.4631   26.0227    1.8744 N.am      5 UNK        -0.4135 
     20 C          24.1469   26.0874    1.6116 C.2       4 UNK         0.5031 
     21 O          23.2858   26.2318    2.4809 O.2       4 UNK        -0.5229 
     22 CA         23.7144   26.0352    0.1279 C.3       4 UNK         0.0329 
     23 CB         22.4987   26.9461   -0.1475 C.3       4 UNK        -0.2001 
     24 N          24.7902   26.3290   -0.8314 N.am      4 UNK        -0.4303 
     25 C          25.5481   27.4339   -0.8933 C.2       3 UNK         0.5044 
     26 O          25.4387   28.4048   -0.1375 O.2       3 UNK        -0.5152 
     27 CA         26.6961   27.4014   -1.9142 C.3       3 UNK         0.0319 
     28 CB         26.5075   28.4887   -2.9835 C.3       3 UNK        -0.2001 
     29 N          27.9900   27.5826   -1.2518 N.am      3 UNK        -0.4354 
     30 C          28.4691   26.8063   -0.2694 C.2       2 UNK         0.4964 
     31 O          27.9084   25.7870    0.1406 O.2       2 UNK        -0.5047 
     32 CA         29.7708   27.2690    0.3998 C.3       2 UNK         0.0288 
     33 CB         29.5583   27.4587    1.9088 C.3       2 UNK        -0.2113 
     34 N          30.8534   26.3123    0.1878 N.am      2 UNK        -0.4145 
     35 C          31.4590   26.0880   -0.9854 C.2       1 UNK         0.5006 
     36 O          31.1509   26.6693   -2.0293 O.2       1 UNK        -0.5103 
     37 C          25.9359   27.7301    3.6620 C.2       5 UNK         0.5055 
     38 O          26.1583   27.9934    4.8453 O.2       5 UNK        -0.5220 
     39 N          25.5268   28.6499    2.7735 N.am      6 UNK        -0.4450 
     40 CA         25.1611   30.0290    3.1007 C.3       6 UNK         0.0367 
     41 CB         23.8063   30.3481    2.4466 C.3       6 UNK        -0.1929 
     42 C          26.2203   31.0394    2.6404 C.2       6 UNK         0.5070 
     43 O          26.3904   32.0671    3.2981 O.2       6 UNK        -0.5237 
     44 N          26.8998   30.7530    1.5214 N.am      7 UNK        -0.4739 
     45 CA         27.9730   31.5886    0.9729 C.3       7 UNK         0.0276 
     46 CB         28.2209   31.1789   -0.4874 C.3       7 UNK        -0.1927 
     47 C          29.2734   31.4969    1.7947 C.2       7 UNK         0.5013 
     48 O          29.4247   30.5987    2.6254 O.2       7 UNK        -0.5193 
     49 N          30.2061   32.4201    1.5279 N.am      8 UNK        -0.4253 
     50 CA         31.5530   32.4122    2.1025 C.3       8 UNK         0.0242 
     51 CB         32.2236   33.7719    1.8466 C.3       8 UNK        -0.2000 
     52 C          32.4004   31.2709    1.5134 C.2       8 UNK         0.4948 
     53 O          32.3368   31.0274    0.3058 O.2       8 UNK        -0.5275 
     54 N          33.1927   30.6218    2.3712 N.am      9 UNK        -0.4246 
     55 CA         34.1137   29.5300    2.0611 C.3       9 UNK         0.0261 
     56 CB         33.3485   28.2521    1.6428 C.3       9 UNK        -0.1959 
     57 C          35.0110   29.3146    3.2913 C.2       9 UNK         0.5033 
     58 O          35.1451   30.2275    4.1122 O.2       9 UNK        -0.5390 
     59 N          35.5779   28.1065    3.4243 N.am      10 UNK        -0.4215 
     60 CA         36.4764   27.6725    4.5043 C.3       10 UNK         0.0240 
     61 CB         36.8974   26.2163    4.2437 C.3       10 UNK        -0.1982 
     62 C          35.9229   27.8180    5.9371 C.2       10 UNK         0.4970 
     63 O          36.7161   27.8572    6.8788 O.2       10 UNK        -0.4916 
     64 N          34.5944   27.9121    6.0804 N.am      11 UNK        -0.4279 
     65 CA         33.9067   28.2481    7.3368 C.3       11 UNK         0.1003 
     66 C          34.1691   29.6987    7.8430 C.2       11 UNK         0.5709 
     67 N          34.6497   30.6209    7.0152 N.am      11 UNK        -0.7358 
     68 O          33.9336   29.9894    9.0134 O.2       11 UNK        -0.4999 
     69 C69        32.3805   27.9808    7.2541 C.3       12 UNK        -0.0954 
     70 S70        31.9661   26.2677    6.7841 S.3       12 UNK        -0.2268 
     71 C71        31.1023   26.5507    5.2104 C.3       12 UNK         0.0203 
     72 H72        33.6166   21.9450   -4.0601 H         1 UNK         0.0888 
     73 H73        32.2882   23.0416   -4.4415 H         1 UNK         0.0888 
     74 H74        33.9292   23.4320   -4.9598 H         1 UNK         0.0888 
     75 H75        31.6548   24.3002   -2.6926 H         1 UNK         0.3017 
     76 H76        33.5146   25.7075   -1.0615 H         1 UNK         0.0873 
     77 H77        33.7228   23.6471    0.2072 H         1 UNK         0.0745 
     78 H78        32.8740   24.8168    1.1566 H         1 UNK         0.0745 
     79 H79        32.7743   22.5782    2.4920 H         1 UNK         0.0705 
     80 H80        31.4701   21.4342    2.3462 H         1 UNK         0.0705 
     81 H81        32.3449   24.8573    3.4725 H         1 UNK         0.1334 
     82 H82        28.7109   25.3485    5.6936 H         1 UNK         0.1417 
     83 H83        29.2110   21.9466    3.1309 H         1 UNK         0.1562 
     84 H84        27.2152   23.3791    5.9024 H         1 UNK         0.0748 
     85 H85        27.5045   21.9598    4.9400 H         1 UNK         0.0748 
     86 H86        26.2889   25.4404    5.1853 H         1 UNK         0.0940 
     87 H87        24.6954   25.2901    4.5116 H         1 UNK         0.0940 
     88 H88        27.1857   26.1652    2.9723 H         1 UNK         0.0703 
     89 H89        26.1034   25.8715    1.1011 H         1 UNK         0.3081 
     90 H90        23.4092   25.0047   -0.0596 H         1 UNK         0.0719 
     91 H91        22.7148   27.9891    0.0869 H         1 UNK         0.0809 
     92 H92        22.1915   26.8939   -1.1919 H         1 UNK         0.0809 
     93 H93        21.6390   26.6495    0.4547 H         1 UNK         0.0809 
     94 H94        25.0051   25.5781   -1.4736 H         1 UNK         0.2990 
     95 H95        26.7127   26.4292   -2.4111 H         1 UNK         0.0690 
     96 H96        27.3064   28.4620   -3.7248 H         1 UNK         0.0788 
     97 H97        26.4860   29.4876   -2.5471 H         1 UNK         0.0788 
     98 H98        25.5666   28.3490   -3.5174 H         1 UNK         0.0788 
     99 H99        28.5308   28.3817   -1.5459 H         1 UNK         0.2993 
    100 H100       30.0729   28.2298   -0.0228 H         1 UNK         0.0949 
    101 H101       30.4131   27.9466    2.3748 H         1 UNK         0.0767 
    102 H102       28.6882   28.0857    2.1065 H         1 UNK         0.0767 
    103 H103       29.3976   26.5060    2.4119 H         1 UNK         0.0767 
    104 H104       31.0929   25.7237    0.9721 H         1 UNK         0.3013 
    105 H105       25.4000   28.3753    1.8030 H         1 UNK         0.3121 
    106 H106       25.0458   30.1432    4.1807 H         1 UNK         0.0774 
    107 H107       23.4868   31.3636    2.6844 H         1 UNK         0.0815 
    108 H108       23.8521   30.2653    1.3597 H         1 UNK         0.0815 
    109 H109       23.0280   29.6713    2.7999 H         1 UNK         0.0815 
    110 H110       26.6801   29.8997    1.0249 H         1 UNK         0.2987 
    111 H111       27.6370   32.6280    0.9896 H         1 UNK         0.0949 
    112 H112       28.6166   30.1676   -0.5548 H         1 UNK         0.0806 
    113 H113       27.3033   31.2267   -1.0735 H         1 UNK         0.0806 
    114 H114       28.9430   31.8402   -0.9678 H         1 UNK         0.0806 
    115 H115       30.0279   33.1026    0.8057 H         1 UNK         0.3010 
    116 H116       31.4627   32.2683    3.1817 H         1 UNK         0.0829 
    117 H117       31.6494   34.5878    2.2861 H         1 UNK         0.0813 
    118 H118       33.2206   33.8042    2.2884 H         1 UNK         0.0813 
    119 H119       32.3339   33.9738    0.7802 H         1 UNK         0.0813 
    120 H120       33.2552   30.9363    3.3324 H         1 UNK         0.3038 
    121 H121       34.7562   29.8493    1.2382 H         1 UNK         0.0769 
    122 H122       32.7770   27.8357    2.4713 H         1 UNK         0.0811 
    123 H123       34.0257   27.4779    1.2817 H         1 UNK         0.0811 
    124 H124       32.6525   28.4519    0.8291 H         1 UNK         0.0811 
    125 H125       35.4028   27.4256    2.7000 H         1 UNK         0.3204 
    126 H126       37.3677   28.3007    4.4482 H         1 UNK         0.0748 
    127 H127       37.5937   25.8667    5.0075 H         1 UNK         0.0771 
    128 H128       36.0404   25.5412    4.2516 H         1 UNK         0.0771 
    129 H129       37.4002   26.1124    3.2819 H         1 UNK         0.0771 
    130 H130       34.0167   27.8622    5.2572 H         1 UNK         0.2980 
    131 H131       34.3114   27.5853    8.1040 H         1 UNK         0.0545 
    132 H132       34.8166   31.5516    7.3620 H         1 UNK         0.3459 
    133 H133       34.8473   30.4028    6.0434 H         1 UNK         0.3459 
    134 H134       31.9131   28.6767    6.5548 H         1 UNK         0.0616 
    135 H135       31.9114   28.1688    8.2217 H         1 UNK         0.0616 
    136 H136       30.2761   27.2464    5.3674 H         1 UNK         0.0634 
    137 H137       31.7819   27.0314    4.5066 H         1 UNK         0.0634 
@<TRIPOS>BOND
     1    1    2 1    
     2    1   72 1    
     3    1   73 1    
     4    1   74 1    
     5    2    3 2    
     6    2    4 am   BACKBONE|DICT|INTERRES
     7    4    5 1    
     8    4   75 1    
     9    5    6 1    
    10    5   35 1    
    11    5   76 1    
    12    6    7 1    
    13    6   77 1    
    14    6   78 1    
    15    7    8 1    
    16    8    9 1    
    17    8   79 1    
    18    8   80 1    
    19    9   10 ar   
    20    9   14 ar   
    21   10   11 ar   
    22   10   81 1    
    23   11   12 ar   
    24   11   71 1    
    25   12   13 ar   
    26   12   82 1    
    27   13   14 ar   
    28   13   15 1    
    29   14   83 1    
    30   15   16 1    
    31   15   84 1    
    32   15   85 1    
    33   16   17 1    
    34   17   18 1    
    35   17   86 1    
    36   17   87 1    
    37   18   19 1    
    38   18   37 1    
    39   18   88 1    
    40   19   20 am   BACKBONE|DICT|INTERRES
    41   19   89 1    
    42   20   21 2    
    43   20   22 1    
    44   22   23 1    
    45   22   24 1    
    46   22   90 1    
    47   23   91 1    
    48   23   92 1    
    49   23   93 1    
    50   24   25 am   BACKBONE|DICT|INTERRES
    51   24   94 1    
    52   25   26 2    
    53   25   27 1    
    54   27   28 1    
    55   27   29 1    
    56   27   95 1    
    57   28   96 1    
    58   28   97 1    
    59   28   98 1    
    60   29   30 am   BACKBONE|DICT|INTERRES
    61   29   99 1    
    62   30   31 2    
    63   30   32 1    
    64   32   33 1    
    65   32   34 1    
    66   32  100 1    
    67   33  101 1    
    68   33  102 1    
    69   33  103 1    
    70   34   35 am   BACKBONE|DICT|INTERRES
    71   34  104 1    
    72   35   36 2    
    73   37   38 2    
    74   37   39 am   BACKBONE|DICT|INTERRES
    75   39   40 1    
    76   39  105 1    
    77   40   41 1    
    78   40   42 1    
    79   40  106 1    
    80   41  107 1    
    81   41  108 1    
    82   41  109 1    
    83   42   43 2    
    84   42   44 am   BACKBONE|DICT|INTERRES
    85   44   45 1    
    86   44  110 1    
    87   45   46 1    
    88   45   47 1    
    89   45  111 1    
    90   46  112 1    
    91   46  113 1    
    92   46  114 1    
    93   47   48 2    
    94   47   49 am   BACKBONE|DICT|INTERRES
    95   49   50 1    
    96   49  115 1    
    97   50   51 1    
    98   50   52 1    
    99   50  116 1    
   100   51  117 1    
   101   51  118 1    
   102   51  119 1    
   103   52   53 2    
   104   52   54 am   BACKBONE|DICT|INTERRES
   105   54   55 1    
   106   54  120 1    
   107   55   56 1    
   108   55   57 1    
   109   55  121 1    
   110   56  122 1    
   111   56  123 1    
   112   56  124 1    
   113   57   58 2    
   114   57   59 am   BACKBONE|DICT|INTERRES
   115   59   60 1    
   116   59  125 1    
   117   60   61 1    
   118   60   62 1    
   119   60  126 1    
   120   61  127 1    
   121   61  128 1    
   122   61  129 1    
   123   62   63 2    
   124   62   64 am   BACKBONE|DICT|INTERRES
   125   64   65 1    
   126   64  130 1    
   127   65   66 1    
   128   65   69 1    
   129   65  131 1    
   130   66   67 am   BACKBONE|DICT|INTERRES
   131   66   68 2    
   132   67  132 1    
   133   67  133 1    
   134   69   70 1    
   135   69  134 1    
   136   69  135 1    
   137   70   71 1    
   138   71  136 1    
   139   71  137 1    
@<TRIPOS>SUBSTRUCTURE
     1 UNK         1 GROUP             0       ****    0 ROOT    
