@<TRIPOS>MOLECULE
3R136
137   139    1
SMALL
USER_CHARGES


@<TRIPOS>ATOM
      1 CA         31.0704   24.5509   -0.2988 C.3       0 UNK        -0.1979 
      2 C          30.4890   23.5164   -1.2580 C.2       0 UNK         0.4864 
      3 O          30.9570   23.4245   -2.3920 O.2       0 UNK        -0.5359 
      4 N          29.4863   22.7154   -0.8759 N.am      1 UNK        -0.4318 
      5 CA         28.7770   22.6574    0.4068 C.3       1 UNK         0.0824 
      6 C6         29.2659   21.4782    1.2974 C.3       12 UNK        -0.0944 
      7 S7         31.0345   21.5535    1.7462 S.3       12 UNK        -0.2672 
      8 C8         30.9858   22.1920    3.4524 C.3       12 UNK         0.0333 
      9 C9         30.5381   23.6451    3.4941 C.ar      12 UNK        -0.0807 
     10 C10        31.4346   24.6664    3.1649 C.ar      12 UNK        -0.0894 
     11 C11        31.0181   26.0009    3.1504 C.ar      12 UNK        -0.0804 
     12 C12        29.6976   26.3105    3.4947 C.ar      12 UNK        -0.0824 
     13 C13        28.7973   25.2986    3.8362 C.ar      12 UNK        -0.0762 
     14 C14        29.2240   23.9681    3.8418 C.ar      12 UNK        -0.0782 
     15 C15        27.3567   25.6352    4.1798 C.3       12 UNK         0.0230 
     16 S16        26.3007   25.5529    2.7006 S.3       12 UNK        -0.2608 
     17 C17        26.5872   27.1733    1.9204 C.3       12 UNK        -0.0989 
     18 CA         27.5285   27.1094    0.6904 C.3       5 UNK         0.0716 
     19 N          26.9246   26.4217   -0.4613 N.am      5 UNK        -0.4135 
     20 C          27.5735   26.1760   -1.6113 C.2       4 UNK         0.5031 
     21 O          28.7743   26.4043   -1.7629 O.2       4 UNK        -0.5229 
     22 CA         26.7703   25.5952   -2.7903 C.3       4 UNK         0.0329 
     23 CB         27.6598   24.8163   -3.7783 C.3       4 UNK        -0.2001 
     24 N          25.6906   24.7144   -2.3473 N.am      4 UNK        -0.4303 
     25 C          24.3820   24.9313   -2.5400 C.2       3 UNK         0.5044 
     26 O          23.9244   25.9447   -3.0692 O.2       3 UNK        -0.5152 
     27 CA         23.4090   23.8315   -2.0708 C.3       3 UNK         0.0319 
     28 CB         22.9656   22.9644   -3.2602 C.3       3 UNK        -0.2001 
     29 N          23.9718   22.9654   -1.0323 N.am      3 UNK        -0.4354 
     30 C          24.2434   23.3618    0.2174 C.2       2 UNK         0.4964 
     31 O          23.9593   24.4786    0.6481 O.2       2 UNK        -0.5047 
     32 CA         24.9735   22.3588    1.1296 C.3       2 UNK         0.0288 
     33 CB         24.6276   20.8841    0.8216 C.3       2 UNK        -0.2113 
     34 N          26.4302   22.5588    1.1396 N.am      2 UNK        -0.4145 
     35 C          27.2718   22.5077    0.0953 C.2       1 UNK         0.5006 
     36 O          26.9021   22.3293   -1.0704 O.2       1 UNK        -0.5103 
     37 C          27.9705   28.5428    0.3221 C.2       5 UNK         0.5055 
     38 O          27.2114   29.2694   -0.3248 O.2       5 UNK        -0.5220 
     39 N          29.1630   28.9266    0.7898 N.am      6 UNK        -0.4450 
     40 CA         29.6745   30.2973    0.7703 C.3       6 UNK         0.0367 
     41 CB         31.1613   30.2677    0.3655 C.3       6 UNK        -0.1929 
     42 C          29.4796   30.9348    2.1584 C.2       6 UNK         0.5070 
     43 O          28.8958   30.3122    3.0506 O.2       6 UNK        -0.5237 
     44 N          29.9730   32.1690    2.3231 N.am      7 UNK        -0.4739 
     45 CA         30.0153   32.8717    3.6076 C.3       7 UNK         0.0276 
     46 CB         30.4331   34.3325    3.3740 C.3       7 UNK        -0.1927 
     47 C          30.9934   32.1854    4.5745 C.2       7 UNK         0.5013 
     48 O          32.1168   31.8741    4.1730 O.2       7 UNK        -0.5193 
     49 N          30.5724   32.0018    5.8335 N.am      8 UNK        -0.4253 
     50 CA         31.2979   31.2621    6.8765 C.3       8 UNK         0.0242 
     51 CB         30.4563   31.2468    8.1629 C.3       8 UNK        -0.2000 
     52 C          32.7236   31.7641    7.1753 C.2       8 UNK         0.4948 
     53 O          33.5536   30.9742    7.6236 O.2       8 UNK        -0.5275 
     54 N          32.9899   33.0491    6.9032 N.am      9 UNK        -0.4246 
     55 CA         34.3166   33.6624    6.9873 C.3       9 UNK         0.0261 
     56 CB         34.1680   35.1919    6.9349 C.3       9 UNK        -0.1959 
     57 C          35.2895   33.1802    5.8929 C.2       9 UNK         0.5033 
     58 O          36.4998   33.2152    6.1204 O.2       9 UNK        -0.5390 
     59 N          34.7640   32.7560    4.7340 N.am      10 UNK        -0.4215 
     60 CA         35.5467   32.2183    3.6191 C.3       10 UNK         0.0240 
     61 CB         34.8612   32.5801    2.2901 C.3       10 UNK        -0.1982 
     62 C          35.7302   30.6966    3.7309 C.2       10 UNK         0.4970 
     63 O          36.7563   30.1851    3.2805 O.2       10 UNK        -0.4916 
     64 N          34.7391   30.0035    4.3071 N.am      11 UNK        -0.4279 
     65 CA         34.7364   28.5483    4.5224 C.3       11 UNK         0.1003 
     66 C          35.8465   28.0644    5.4966 C.2       11 UNK         0.5709 
     67 N          36.3086   26.8307    5.3410 N.am      11 UNK        -0.7358 
     68 O          36.2676   28.7743    6.4080 O.2       11 UNK        -0.4999 
     69 C69        33.3440   28.0367    4.9775 C.3       12 UNK        -0.0954 
     70 S70        32.0216   28.5179    3.8216 S.3       12 UNK        -0.2268 
     71 C71        31.9751   27.0928    2.6914 C.3       12 UNK         0.0203 
     72 H72        30.2966   25.1038    0.2293 H         1 UNK         0.0888 
     73 H73        31.7260   24.0712    0.4248 H         1 UNK         0.0888 
     74 H74        31.6623   25.2818   -0.8491 H         1 UNK         0.0888 
     75 H75        29.0747   22.1062   -1.5706 H         1 UNK         0.3017 
     76 H76        28.8888   23.5939    0.9524 H         1 UNK         0.0873 
     77 H77        29.1055   20.5296    0.7810 H         1 UNK         0.0745 
     78 H78        28.6830   21.4124    2.2173 H         1 UNK         0.0745 
     79 H79        31.9828   22.1082    3.8874 H         1 UNK         0.0705 
     80 H80        30.3349   21.5633    4.0621 H         1 UNK         0.0705 
     81 H81        32.4486   24.4140    2.8858 H         1 UNK         0.1334 
     82 H82        29.3658   27.3400    3.4868 H         1 UNK         0.1417 
     83 H83        28.5275   23.1831    4.1026 H         1 UNK         0.1562 
     84 H84        27.2860   26.6189    4.6464 H         1 UNK         0.0748 
     85 H85        26.9795   24.9258    4.9179 H         1 UNK         0.0748 
     86 H86        26.9796   27.8541    2.6792 H         1 UNK         0.0940 
     87 H87        25.6186   27.5875    1.6333 H         1 UNK         0.0940 
     88 H88        28.4182   26.5406    0.9662 H         1 UNK         0.0703 
     89 H89        25.9380   26.2151   -0.3990 H         1 UNK         0.3081 
     90 H90        26.3627   26.4558   -3.3242 H         1 UNK         0.0719 
     91 H91        28.4550   25.4461   -4.1795 H         1 UNK         0.0809 
     92 H92        28.1319   23.9570   -3.3013 H         1 UNK         0.0809 
     93 H93        27.0817   24.4510   -4.6272 H         1 UNK         0.0809 
     94 H94        25.9781   23.8487   -1.8983 H         1 UNK         0.2990 
     95 H95        22.5266   24.3269   -1.6600 H         1 UNK         0.0690 
     96 H96        23.8064   22.4328   -3.7079 H         1 UNK         0.0788 
     97 H97        22.5132   23.5763   -4.0420 H         1 UNK         0.0788 
     98 H98        22.2223   22.2262   -2.9584 H         1 UNK         0.0788 
     99 H99        24.2746   22.0441   -1.3162 H         1 UNK         0.2993 
    100 H100       24.6268   22.5695    2.1429 H         1 UNK         0.0949 
    101 H101       25.0232   20.5512   -0.1384 H         1 UNK         0.0767 
    102 H102       25.0333   20.2227    1.5874 H         1 UNK         0.0767 
    103 H103       23.5477   20.7293    0.8057 H         1 UNK         0.0767 
    104 H104       26.8144   22.7815    2.0467 H         1 UNK         0.3013 
    105 H105       29.6829   28.2836    1.3670 H         1 UNK         0.3121 
    106 H106       29.1255   30.8972    0.0415 H         1 UNK         0.0774 
    107 H107       31.5417   31.2728    0.1817 H         1 UNK         0.0815 
    108 H108       31.7875   29.8247    1.1397 H         1 UNK         0.0815 
    109 H109       31.3113   29.6991   -0.5526 H         1 UNK         0.0815 
    110 H110       30.4615   32.6053    1.5551 H         1 UNK         0.2987 
    111 H111       29.0117   32.8575    4.0387 H         1 UNK         0.0949 
    112 H112       29.7384   34.8427    2.7065 H         1 UNK         0.0806 
    113 H113       30.4474   34.8901    4.3114 H         1 UNK         0.0806 
    114 H114       31.4310   34.4030    2.9381 H         1 UNK         0.0806 
    115 H115       29.6418   32.3103    6.0763 H         1 UNK         0.3010 
    116 H116       31.3948   30.2335    6.5227 H         1 UNK         0.0829 
    117 H117       29.4857   30.7784    7.9982 H         1 UNK         0.0813 
    118 H118       30.9558   30.6801    8.9503 H         1 UNK         0.0813 
    119 H119       30.2850   32.2539    8.5453 H         1 UNK         0.0813 
    120 H120       32.2400   33.6263    6.5518 H         1 UNK         0.3038 
    121 H121       34.7519   33.3946    7.9526 H         1 UNK         0.0769 
    122 H122       35.1392   35.6809    7.0248 H         1 UNK         0.0811 
    123 H123       33.5462   35.5593    7.7516 H         1 UNK         0.0811 
    124 H124       33.7226   35.5234    5.9960 H         1 UNK         0.0811 
    125 H125       33.7531   32.6962    4.6358 H         1 UNK         0.3204 
    126 H126       36.5389   32.6748    3.6180 H         1 UNK         0.0748 
    127 H127       35.4560   32.2398    1.4414 H         1 UNK         0.0771 
    128 H128       33.8763   32.1203    2.2003 H         1 UNK         0.0771 
    129 H129       34.7381   33.6584    2.1881 H         1 UNK         0.0771 
    130 H130       33.9096   30.4964    4.6078 H         1 UNK         0.2980 
    131 H131       34.9510   28.0983    3.5511 H         1 UNK         0.0545 
    132 H132       37.0197   26.4927    5.9705 H         1 UNK         0.3459 
    133 H133       35.9668   26.2326    4.6052 H         1 UNK         0.3459 
    134 H134       33.3398   26.9502    5.0834 H         1 UNK         0.0616 
    135 H135       33.0953   28.4402    5.9606 H         1 UNK         0.0616 
    136 H136       31.6549   27.4361    1.7078 H         1 UNK         0.0634 
    137 H137       32.9856   26.7032    2.5596 H         1 UNK         0.0634 
@<TRIPOS>BOND
     1    1    2 1    
     2    1   72 1    
     3    1   73 1    
     4    1   74 1    
     5    2    3 2    
     6    2    4 am   BACKBONE|DICT|INTERRES
     7    4    5 1    
     8    4   75 1    
     9    5    6 1    
    10    5   35 1    
    11    5   76 1    
    12    6    7 1    
    13    6   77 1    
    14    6   78 1    
    15    7    8 1    
    16    8    9 1    
    17    8   79 1    
    18    8   80 1    
    19    9   10 ar   
    20    9   14 ar   
    21   10   11 ar   
    22   10   81 1    
    23   11   12 ar   
    24   11   71 1    
    25   12   13 ar   
    26   12   82 1    
    27   13   14 ar   
    28   13   15 1    
    29   14   83 1    
    30   15   16 1    
    31   15   84 1    
    32   15   85 1    
    33   16   17 1    
    34   17   18 1    
    35   17   86 1    
    36   17   87 1    
    37   18   19 1    
    38   18   37 1    
    39   18   88 1    
    40   19   20 am   BACKBONE|DICT|INTERRES
    41   19   89 1    
    42   20   21 2    
    43   20   22 1    
    44   22   23 1    
    45   22   24 1    
    46   22   90 1    
    47   23   91 1    
    48   23   92 1    
    49   23   93 1    
    50   24   25 am   BACKBONE|DICT|INTERRES
    51   24   94 1    
    52   25   26 2    
    53   25   27 1    
    54   27   28 1    
    55   27   29 1    
    56   27   95 1    
    57   28   96 1    
    58   28   97 1    
    59   28   98 1    
    60   29   30 am   BACKBONE|DICT|INTERRES
    61   29   99 1    
    62   30   31 2    
    63   30   32 1    
    64   32   33 1    
    65   32   34 1    
    66   32  100 1    
    67   33  101 1    
    68   33  102 1    
    69   33  103 1    
    70   34   35 am   BACKBONE|DICT|INTERRES
    71   34  104 1    
    72   35   36 2    
    73   37   38 2    
    74   37   39 am   BACKBONE|DICT|INTERRES
    75   39   40 1    
    76   39  105 1    
    77   40   41 1    
    78   40   42 1    
    79   40  106 1    
    80   41  107 1    
    81   41  108 1    
    82   41  109 1    
    83   42   43 2    
    84   42   44 am   BACKBONE|DICT|INTERRES
    85   44   45 1    
    86   44  110 1    
    87   45   46 1    
    88   45   47 1    
    89   45  111 1    
    90   46  112 1    
    91   46  113 1    
    92   46  114 1    
    93   47   48 2    
    94   47   49 am   BACKBONE|DICT|INTERRES
    95   49   50 1    
    96   49  115 1    
    97   50   51 1    
    98   50   52 1    
    99   50  116 1    
   100   51  117 1    
   101   51  118 1    
   102   51  119 1    
   103   52   53 2    
   104   52   54 am   BACKBONE|DICT|INTERRES
   105   54   55 1    
   106   54  120 1    
   107   55   56 1    
   108   55   57 1    
   109   55  121 1    
   110   56  122 1    
   111   56  123 1    
   112   56  124 1    
   113   57   58 2    
   114   57   59 am   BACKBONE|DICT|INTERRES
   115   59   60 1    
   116   59  125 1    
   117   60   61 1    
   118   60   62 1    
   119   60  126 1    
   120   61  127 1    
   121   61  128 1    
   122   61  129 1    
   123   62   63 2    
   124   62   64 am   BACKBONE|DICT|INTERRES
   125   64   65 1    
   126   64  130 1    
   127   65   66 1    
   128   65   69 1    
   129   65  131 1    
   130   66   67 am   BACKBONE|DICT|INTERRES
   131   66   68 2    
   132   67  132 1    
   133   67  133 1    
   134   69   70 1    
   135   69  134 1    
   136   69  135 1    
   137   70   71 1    
   138   71  136 1    
   139   71  137 1    
@<TRIPOS>SUBSTRUCTURE
     1 UNK         1 GROUP             0       ****    0 ROOT    
