@<TRIPOS>MOLECULE
3R136
137   139    1
SMALL
USER_CHARGES


@<TRIPOS>ATOM
      1 CA         26.5702   24.3098   -3.4275 C.3       0 UNK        -0.1979 
      2 C          27.7555   23.6004   -2.7894 C.2       0 UNK         0.4864 
      3 O          28.7920   23.4378   -3.4343 O.2       0 UNK        -0.5359 
      4 N          27.6102   23.1746   -1.5276 N.am      1 UNK        -0.4318 
      5 CA         28.6661   22.5561   -0.7223 C.3       1 UNK         0.0824 
      6 C6         28.0687   21.8265    0.5093 C.3       12 UNK        -0.0944 
      7 S7         29.0150   20.3510    1.0182 S.3       12 UNK        -0.2672 
      8 C8         30.4406   21.0385    1.9362 C.3       12 UNK         0.0333 
      9 C9         30.1159   21.9389    3.1297 C.ar      12 UNK        -0.0807 
     10 C10        31.0989   22.8280    3.5738 C.ar      12 UNK        -0.0894 
     11 C11        30.8651   23.6733    4.6608 C.ar      12 UNK        -0.0804 
     12 C12        29.6353   23.6205    5.3206 C.ar      12 UNK        -0.0824 
     13 C13        28.6292   22.7555    4.8753 C.ar      12 UNK        -0.0762 
     14 C14        28.8861   21.8998    3.7998 C.ar      12 UNK        -0.0782 
     15 C15        27.2588   22.7426    5.5428 C.3       12 UNK         0.0230 
     16 S16        26.5191   24.4046    5.6925 S.3       12 UNK        -0.2608 
     17 C17        26.3395   24.9531    3.9539 C.3       12 UNK        -0.0989 
     18 CA         27.5191   25.8367    3.4571 C.3       5 UNK         0.0716 
     19 N          27.5406   26.0043    2.0016 N.am      5 UNK        -0.4135 
     20 C          26.6926   26.7282    1.2576 C.2       4 UNK         0.5031 
     21 O          25.6811   27.2766    1.6971 O.2       4 UNK        -0.5229 
     22 CA         27.0671   26.8709   -0.2330 C.3       4 UNK         0.0329 
     23 CB         26.1607   27.8543   -1.0003 C.3       4 UNK        -0.2001 
     24 N          28.4829   27.2083   -0.4390 N.am      4 UNK        -0.4303 
     25 C          29.1693   28.2408    0.0748 C.2       3 UNK         0.5044 
     26 O          28.6658   29.1088    0.7890 O.2       3 UNK        -0.5152 
     27 CA         30.6832   28.2871   -0.2252 C.3       3 UNK         0.0319 
     28 CB         31.4367   29.2369    0.7221 C.3       3 UNK        -0.2001 
     29 N          31.2977   26.9584   -0.1409 N.am      3 UNK        -0.4354 
     30 C          31.3689   26.0729   -1.1428 C.2       2 UNK         0.4964 
     31 O          30.9659   26.3053   -2.2827 O.2       2 UNK        -0.5047 
     32 CA         31.9138   24.6681   -0.8153 C.3       2 UNK         0.0288 
     33 CB         32.5967   24.5570    0.5679 C.3       2 UNK        -0.2113 
     34 N          30.8578   23.6565   -0.9570 N.am      2 UNK        -0.4145 
     35 C          29.6820   23.6396   -0.3102 C.2       1 UNK         0.5006 
     36 O          29.3605   24.4602    0.5531 O.2       1 UNK        -0.5103 
     37 C          27.6722   27.1975    4.1774 C.2       5 UNK         0.5055 
     38 O          26.8083   27.6005    4.9593 O.2       5 UNK        -0.5220 
     39 N          28.7885   27.8771    3.8737 N.am      6 UNK        -0.4450 
     40 CA         29.2433   29.1490    4.4463 C.3       6 UNK         0.0367 
     41 CB         29.6819   28.9508    5.9131 C.3       6 UNK        -0.1929 
     42 C          28.2474   30.3138    4.2660 C.2       6 UNK         0.5070 
     43 O          28.0449   31.1015    5.1922 O.2       6 UNK        -0.5237 
     44 N          27.6367   30.4063    3.0774 N.am      7 UNK        -0.4739 
     45 CA         26.7008   31.4735    2.7128 C.3       7 UNK         0.0276 
     46 CB         25.7893   30.9809    1.5789 C.3       7 UNK        -0.1927 
     47 C          27.4219   32.7644    2.2906 C.2       7 UNK         0.5013 
     48 O          26.8646   33.8492    2.4647 O.2       7 UNK        -0.5193 
     49 N          28.6333   32.6199    1.7390 N.am      8 UNK        -0.4253 
     50 CA         29.5240   33.7084    1.3439 C.3       8 UNK         0.0242 
     51 CB         29.9961   33.4671   -0.1059 C.3       8 UNK        -0.2000 
     52 C          30.6591   33.7837    2.3774 C.2       8 UNK         0.4948 
     53 O          30.4065   34.1738    3.5189 O.2       8 UNK        -0.5275 
     54 N          31.8769   33.3908    1.9811 N.am      9 UNK        -0.4246 
     55 CA         33.0057   33.1457    2.8821 C.3       9 UNK         0.0261 
     56 CB         34.2875   33.0137    2.0425 C.3       9 UNK        -0.1959 
     57 C          32.7746   31.8689    3.7090 C.2       9 UNK         0.5033 
     58 O          31.9645   31.0264    3.3171 O.2       9 UNK        -0.5390 
     59 N          33.5164   31.7131    4.8123 N.am      10 UNK        -0.4215 
     60 CA         33.4508   30.5600    5.7201 C.3       10 UNK         0.0240 
     61 CB         34.0527   30.9624    7.0800 C.3       10 UNK        -0.1982 
     62 C          34.0984   29.2844    5.1344 C.2       10 UNK         0.4970 
     63 O          35.0023   28.7157    5.7502 O.2       10 UNK        -0.4916 
     64 N          33.6221   28.8697    3.9543 N.am      11 UNK        -0.4279 
     65 CA         34.0924   27.7243    3.1595 C.3       11 UNK         0.1003 
     66 C          35.5804   27.8655    2.7098 C.2       11 UNK         0.5709 
     67 N          36.2743   26.7742    2.4116 N.am      11 UNK        -0.7358 
     68 O          36.1010   28.9706    2.5650 O.2       11 UNK        -0.4999 
     69 C69        33.7405   26.3582    3.8183 C.3       12 UNK        -0.0954 
     70 S70        31.9465   26.1370    4.0585 S.3       12 UNK        -0.2268 
     71 C71        31.9416   24.6488    5.1065 C.3       12 UNK         0.0203 
     72 H72        26.2672   23.7910   -4.3366 H         1 UNK         0.0888 
     73 H73        25.7102   24.3520   -2.7593 H         1 UNK         0.0888 
     74 H74        26.8439   25.3308   -3.6924 H         1 UNK         0.0888 
     75 H75        26.7339   23.3302   -1.0509 H         1 UNK         0.3017 
     76 H76        29.1687   21.8182   -1.3520 H         1 UNK         0.0873 
     77 H77        27.9055   22.4983    1.3529 H         1 UNK         0.0745 
     78 H78        27.0750   21.4495    0.2619 H         1 UNK         0.0745 
     79 H79        31.0401   20.2027    2.2987 H         1 UNK         0.0705 
     80 H80        31.0738   21.5774    1.2305 H         1 UNK         0.0705 
     81 H81        32.0533   22.8697    3.0672 H         1 UNK         0.1334 
     82 H82        29.4457   24.2795    6.1570 H         1 UNK         0.1417 
     83 H83        28.1159   21.2140    3.4765 H         1 UNK         0.1562 
     84 H84        27.3602   22.3130    6.5402 H         1 UNK         0.0748 
     85 H85        26.5639   22.0998    5.0000 H         1 UNK         0.0748 
     86 H86        25.3953   25.4914    3.8554 H         1 UNK         0.0940 
     87 H87        26.2465   24.0693    3.3209 H         1 UNK         0.0940 
     88 H88        28.4389   25.2941    3.6651 H         1 UNK         0.0703 
     89 H89        28.3117   25.5415    1.5193 H         1 UNK         0.3081 
     90 H90        26.9207   25.8840   -0.6714 H         1 UNK         0.0719 
     91 H91        26.2556   28.8699   -0.6193 H         1 UNK         0.0809 
     92 H92        25.1111   27.5703   -0.9152 H         1 UNK         0.0809 
     93 H93        26.4059   27.8717   -2.0620 H         1 UNK         0.0809 
     94 H94        29.0138   26.5441   -0.9866 H         1 UNK         0.2990 
     95 H95        30.7932   28.6755   -1.2398 H         1 UNK         0.0690 
     96 H96        32.4962   29.2926    0.4726 H         1 UNK         0.0788 
     97 H97        31.3498   28.9146    1.7595 H         1 UNK         0.0788 
     98 H98        31.0421   30.2516    0.6644 H         1 UNK         0.0788 
     99 H99        31.5883   26.6521    0.7762 H         1 UNK         0.2993 
    100 H100       32.6653   24.4492   -1.5755 H         1 UNK         0.0949 
    101 H101       33.0302   23.5668    0.7079 H         1 UNK         0.0767 
    102 H102       33.4106   25.2765    0.6656 H         1 UNK         0.0767 
    103 H103       31.8998   24.7259    1.3887 H         1 UNK         0.0767 
    104 H104       30.9943   22.9910   -1.7057 H         1 UNK         0.3013 
    105 H105       29.4117   27.4668    3.1937 H         1 UNK         0.3121 
    106 H106       30.1284   29.4248    3.8771 H         1 UNK         0.0774 
    107 H107       30.0926   29.8716    6.3280 H         1 UNK         0.0815 
    108 H108       28.8455   28.6557    6.5472 H         1 UNK         0.0815 
    109 H109       30.4540   28.1860    5.9958 H         1 UNK         0.0815 
    110 H110       27.8867   29.7478    2.3411 H         1 UNK         0.2987 
    111 H111       26.0751   31.7053    3.5777 H         1 UNK         0.0949 
    112 H112       26.3559   30.7932    0.6667 H         1 UNK         0.0806 
    113 H113       25.2747   30.0594    1.8521 H         1 UNK         0.0806 
    114 H114       25.0262   31.7232    1.3416 H         1 UNK         0.0806 
    115 H115       29.0079   31.6828    1.6784 H         1 UNK         0.3010 
    116 H116       29.0008   34.6666    1.3731 H         1 UNK         0.0829 
    117 H117       29.1513   33.4926   -0.7947 H         1 UNK         0.0813 
    118 H118       30.6912   34.2429   -0.4304 H         1 UNK         0.0813 
    119 H119       30.4851   32.5005   -0.2306 H         1 UNK         0.0813 
    120 H120       31.9835   33.0635    1.0329 H         1 UNK         0.3038 
    121 H121       33.1052   33.9941    3.5626 H         1 UNK         0.0769 
    122 H122       34.4651   33.9083    1.4453 H         1 UNK         0.0811 
    123 H123       34.2397   32.1605    1.3641 H         1 UNK         0.0811 
    124 H124       35.1630   32.8729    2.6777 H         1 UNK         0.0811 
    125 H125       34.1928   32.4265    5.0442 H         1 UNK         0.3204 
    126 H126       32.3991   30.3232    5.8886 H         1 UNK         0.0748 
    127 H127       33.5314   31.8195    7.5071 H         1 UNK         0.0771 
    128 H128       33.9719   30.1474    7.8007 H         1 UNK         0.0771 
    129 H129       35.1093   31.2193    6.9942 H         1 UNK         0.0771 
    130 H130       32.9112   29.4549    3.5228 H         1 UNK         0.2980 
    131 H131       33.5343   27.7795    2.2256 H         1 UNK         0.0545 
    132 H132       37.2273   26.8743    2.0992 H         1 UNK         0.3459 
    133 H133       35.8724   25.8556    2.5053 H         1 UNK         0.3459 
    134 H134       34.0752   25.5256    3.1987 H         1 UNK         0.0616 
    135 H135       34.2475   26.2548    4.7790 H         1 UNK         0.0616 
    136 H136       31.7918   24.9458    6.1455 H         1 UNK         0.0634 
    137 H137       32.9122   24.1522    5.0662 H         1 UNK         0.0634 
@<TRIPOS>BOND
     1    1    2 1    
     2    1   72 1    
     3    1   73 1    
     4    1   74 1    
     5    2    3 2    
     6    2    4 am   BACKBONE|DICT|INTERRES
     7    4    5 1    
     8    4   75 1    
     9    5    6 1    
    10    5   35 1    
    11    5   76 1    
    12    6    7 1    
    13    6   77 1    
    14    6   78 1    
    15    7    8 1    
    16    8    9 1    
    17    8   79 1    
    18    8   80 1    
    19    9   10 ar   
    20    9   14 ar   
    21   10   11 ar   
    22   10   81 1    
    23   11   12 ar   
    24   11   71 1    
    25   12   13 ar   
    26   12   82 1    
    27   13   14 ar   
    28   13   15 1    
    29   14   83 1    
    30   15   16 1    
    31   15   84 1    
    32   15   85 1    
    33   16   17 1    
    34   17   18 1    
    35   17   86 1    
    36   17   87 1    
    37   18   19 1    
    38   18   37 1    
    39   18   88 1    
    40   19   20 am   BACKBONE|DICT|INTERRES
    41   19   89 1    
    42   20   21 2    
    43   20   22 1    
    44   22   23 1    
    45   22   24 1    
    46   22   90 1    
    47   23   91 1    
    48   23   92 1    
    49   23   93 1    
    50   24   25 am   BACKBONE|DICT|INTERRES
    51   24   94 1    
    52   25   26 2    
    53   25   27 1    
    54   27   28 1    
    55   27   29 1    
    56   27   95 1    
    57   28   96 1    
    58   28   97 1    
    59   28   98 1    
    60   29   30 am   BACKBONE|DICT|INTERRES
    61   29   99 1    
    62   30   31 2    
    63   30   32 1    
    64   32   33 1    
    65   32   34 1    
    66   32  100 1    
    67   33  101 1    
    68   33  102 1    
    69   33  103 1    
    70   34   35 am   BACKBONE|DICT|INTERRES
    71   34  104 1    
    72   35   36 2    
    73   37   38 2    
    74   37   39 am   BACKBONE|DICT|INTERRES
    75   39   40 1    
    76   39  105 1    
    77   40   41 1    
    78   40   42 1    
    79   40  106 1    
    80   41  107 1    
    81   41  108 1    
    82   41  109 1    
    83   42   43 2    
    84   42   44 am   BACKBONE|DICT|INTERRES
    85   44   45 1    
    86   44  110 1    
    87   45   46 1    
    88   45   47 1    
    89   45  111 1    
    90   46  112 1    
    91   46  113 1    
    92   46  114 1    
    93   47   48 2    
    94   47   49 am   BACKBONE|DICT|INTERRES
    95   49   50 1    
    96   49  115 1    
    97   50   51 1    
    98   50   52 1    
    99   50  116 1    
   100   51  117 1    
   101   51  118 1    
   102   51  119 1    
   103   52   53 2    
   104   52   54 am   BACKBONE|DICT|INTERRES
   105   54   55 1    
   106   54  120 1    
   107   55   56 1    
   108   55   57 1    
   109   55  121 1    
   110   56  122 1    
   111   56  123 1    
   112   56  124 1    
   113   57   58 2    
   114   57   59 am   BACKBONE|DICT|INTERRES
   115   59   60 1    
   116   59  125 1    
   117   60   61 1    
   118   60   62 1    
   119   60  126 1    
   120   61  127 1    
   121   61  128 1    
   122   61  129 1    
   123   62   63 2    
   124   62   64 am   BACKBONE|DICT|INTERRES
   125   64   65 1    
   126   64  130 1    
   127   65   66 1    
   128   65   69 1    
   129   65  131 1    
   130   66   67 am   BACKBONE|DICT|INTERRES
   131   66   68 2    
   132   67  132 1    
   133   67  133 1    
   134   69   70 1    
   135   69  134 1    
   136   69  135 1    
   137   70   71 1    
   138   71  136 1    
   139   71  137 1    
@<TRIPOS>SUBSTRUCTURE
     1 UNK         1 GROUP             0       ****    0 ROOT    
