@<TRIPOS>MOLECULE
3R136
137   139    1
SMALL
USER_CHARGES


@<TRIPOS>ATOM
      1 CA         24.8995   21.8596   -1.6100 C.3       0 UNK        -0.1979 
      2 C          26.4159   21.9838   -1.6031 C.2       0 UNK         0.4864 
      3 O          26.9917   22.4653   -2.5792 O.2       0 UNK        -0.5359 
      4 N          27.0621   21.5626   -0.5069 N.am      1 UNK        -0.4318 
      5 CA         28.5139   21.6136   -0.2973 C.3       1 UNK         0.0824 
      6 C6         28.8968   20.8905    1.0150 C.3       12 UNK        -0.0944 
      7 S7         30.6808   20.5282    1.1279 S.3       12 UNK        -0.2672 
      8 C8         30.9486   20.5773    2.9282 C.3       12 UNK         0.0333 
      9 C9         30.7861   21.9774    3.5057 C.ar      12 UNK        -0.0807 
     10 C10        31.7493   22.9574    3.2538 C.ar      12 UNK        -0.0894 
     11 C11        31.6338   24.2369    3.8070 C.ar      12 UNK        -0.0804 
     12 C12        30.5359   24.5267    4.6289 C.ar      12 UNK        -0.0824 
     13 C13        29.5594   23.5574    4.8808 C.ar      12 UNK        -0.0762 
     14 C14        29.6914   22.2850    4.3179 C.ar      12 UNK        -0.0782 
     15 C15        28.3725   23.8637    5.7833 C.3       12 UNK         0.0230 
     16 S16        26.8656   24.2188    4.8239 S.3       12 UNK        -0.2608 
     17 C17        27.0880   25.9797    4.3990 C.3       12 UNK        -0.0989 
     18 CA         27.6837   26.1858    2.9818 C.3       5 UNK         0.0716 
     19 N          26.9009   25.5980    1.8921 N.am      5 UNK        -0.4135 
     20 C          25.6403   25.8731    1.5255 C.2       4 UNK         0.5031 
     21 O          24.8627   26.5911    2.1564 O.2       4 UNK        -0.5229 
     22 CA         25.2001   25.2412    0.1891 C.3       4 UNK         0.0329 
     23 CB         23.7591   25.6108   -0.2235 C.3       4 UNK        -0.2001 
     24 N          26.1566   25.5417   -0.8868 N.am      4 UNK        -0.4303 
     25 C          26.5066   26.7529   -1.3502 C.2       3 UNK         0.5044 
     26 O          25.9602   27.8064   -1.0220 O.2       3 UNK        -0.5152 
     27 CA         27.7236   26.7802   -2.2881 C.3       3 UNK         0.0319 
     28 CB         28.1641   28.2073   -2.6758 C.3       3 UNK        -0.2001 
     29 N          28.8158   26.0555   -1.6403 N.am      3 UNK        -0.4354 
     30 C          29.8438   25.4586   -2.2505 C.2       2 UNK         0.4964 
     31 O          30.0668   25.5332   -3.4590 O.2       2 UNK        -0.5047 
     32 CA         30.7580   24.5919   -1.3639 C.3       2 UNK         0.0288 
     33 CB         31.2466   25.3220   -0.0929 C.3       2 UNK        -0.2113 
     34 N          30.1422   23.2963   -1.0476 N.am      2 UNK        -0.4145 
     35 C          29.0340   23.0671   -0.3268 C.2       1 UNK         0.5006 
     36 O          28.4127   23.9411    0.2848 O.2       1 UNK        -0.5103 
     37 C          27.9656   27.6685    2.6753 C.2       5 UNK         0.5055 
     38 O          27.1816   28.5418    3.0527 O.2       5 UNK        -0.5220 
     39 N          29.0852   27.9286    1.9865 N.am      6 UNK        -0.4450 
     40 CA         29.5320   29.2486    1.5244 C.3       6 UNK         0.0367 
     41 CB         30.5670   29.0471    0.3999 C.3       6 UNK        -0.1929 
     42 C          30.0826   30.1433    2.6573 C.2       6 UNK         0.5070 
     43 O          31.1594   30.7207    2.5096 O.2       6 UNK        -0.5237 
     44 N          29.3463   30.2371    3.7711 N.am      7 UNK        -0.4739 
     45 CA         29.6952   30.9878    4.9794 C.3       7 UNK         0.0276 
     46 CB         28.5841   30.7933    6.0229 C.3       7 UNK        -0.1927 
     47 C          29.9341   32.4847    4.7156 C.2       7 UNK         0.5013 
     48 O          29.3103   33.0613    3.8209 O.2       7 UNK        -0.5193 
     49 N          30.8469   33.0767    5.4970 N.am      8 UNK        -0.4253 
     50 CA         31.3576   34.4551    5.4328 C.3       8 UNK         0.0242 
     51 CB         30.2346   35.5039    5.5608 C.3       8 UNK        -0.2000 
     52 C          32.2544   34.7312    4.2119 C.2       8 UNK         0.4948 
     53 O          33.2825   35.3911    4.3693 O.2       8 UNK        -0.5275 
     54 N          31.8839   34.2090    3.0348 N.am      9 UNK        -0.4246 
     55 CA         32.7168   34.1943    1.8296 C.3       9 UNK         0.0261 
     56 CB         31.8577   33.8171    0.6114 C.3       9 UNK        -0.1959 
     57 C          33.9099   33.2343    1.9810 C.2       9 UNK         0.5033 
     58 O          35.0341   33.5957    1.6294 O.2       9 UNK        -0.5390 
     59 N          33.6402   32.0458    2.5281 N.am      10 UNK        -0.4215 
     60 CA         34.5996   31.0117    2.8922 C.3       10 UNK         0.0240 
     61 CB         34.8608   30.1016    1.6721 C.3       10 UNK        -0.1982 
     62 C          34.0470   30.2598    4.1174 C.2       10 UNK         0.4970 
     63 O          33.2743   30.8351    4.8900 O.2       10 UNK        -0.4916 
     64 N          34.4468   28.9912    4.2669 N.am      11 UNK        -0.4279 
     65 CA         33.9852   28.0474    5.2981 C.3       11 UNK         0.1003 
     66 C          34.3199   28.5065    6.7517 C.2       11 UNK         0.5709 
     67 N          33.5716   28.0733    7.7586 N.am      11 UNK        -0.7358 
     68 O          35.3011   29.2105    6.9860 O.2       11 UNK        -0.4999 
     69 C69        32.5044   27.5995    5.0853 C.3       12 UNK        -0.0954 
     70 S70        32.1748   26.9832    3.3970 S.3       12 UNK        -0.2268 
     71 C71        32.7389   25.2545    3.5291 C.3       12 UNK         0.0203 
     72 H72        24.5883   21.1238   -2.3510 H         1 UNK         0.0888 
     73 H73        24.5102   21.5516   -0.6398 H         1 UNK         0.0888 
     74 H74        24.4446   22.8152   -1.8691 H         1 UNK         0.0888 
     75 H75        26.5262   21.1974    0.2671 H         1 UNK         0.3017 
     76 H76        28.9627   21.0704   -1.1319 H         1 UNK         0.0873 
     77 H77        28.5671   21.4711    1.8778 H         1 UNK         0.0745 
     78 H78        28.3761   19.9337    1.0811 H         1 UNK         0.0745 
     79 H79        31.9565   20.2188    3.1421 H         1 UNK         0.0705 
     80 H80        30.2676   19.8742    3.4106 H         1 UNK         0.0705 
     81 H81        32.5983   22.7148    2.6291 H         1 UNK         0.1334 
     82 H82        30.4347   25.5044    5.0765 H         1 UNK         0.1417 
     83 H83        28.9411   21.5325    4.5198 H         1 UNK         0.1562 
     84 H84        28.5957   24.6917    6.4577 H         1 UNK         0.0748 
     85 H85        28.1790   23.0023    6.4245 H         1 UNK         0.0748 
     86 H86        27.7230   26.4526    5.1501 H         1 UNK         0.0940 
     87 H87        26.1177   26.4716    4.4848 H         1 UNK         0.0940 
     88 H88        28.6420   25.6664    2.9568 H         1 UNK         0.0703 
     89 H89        27.4271   24.9548    1.3006 H         1 UNK         0.3081 
     90 H90        25.2308   24.1617    0.3413 H         1 UNK         0.0719 
     91 H91        23.6324   26.6871   -0.3435 H         1 UNK         0.0809 
     92 H92        23.4796   25.1341   -1.1628 H         1 UNK         0.0809 
     93 H93        23.0437   25.2840    0.5320 H         1 UNK         0.0809 
     94 H94        26.6983   24.7516   -1.2132 H         1 UNK         0.2990 
     95 H95        27.4385   26.2458   -3.1969 H         1 UNK         0.0690 
     96 H96        29.0473   28.1971   -3.3144 H         1 UNK         0.0788 
     97 H97        28.3889   28.8138   -1.7987 H         1 UNK         0.0788 
     98 H98        27.3739   28.7184   -3.2270 H         1 UNK         0.0788 
     99 H99        28.6862   25.8513   -0.6574 H         1 UNK         0.2993 
    100 H100       31.6428   24.3674   -1.9623 H         1 UNK         0.0949 
    101 H101       30.4419   25.5460    0.6054 H         1 UNK         0.0767 
    102 H102       31.9794   24.7175    0.4412 H         1 UNK         0.0767 
    103 H103       31.7329   26.2641   -0.3480 H         1 UNK         0.0767 
    104 H104       30.5675   22.5042   -1.5094 H         1 UNK         0.3013 
    105 H105       29.7201   27.1672    1.7987 H         1 UNK         0.3121 
    106 H106       28.6711   29.7678    1.0981 H         1 UNK         0.0774 
    107 H107       30.8318   29.9994   -0.0615 H         1 UNK         0.0815 
    108 H108       31.4890   28.6040    0.7785 H         1 UNK         0.0815 
    109 H109       30.1878   28.4003   -0.3894 H         1 UNK         0.0815 
    110 H110       28.4511   29.7562    3.7676 H         1 UNK         0.2987 
    111 H111       30.6196   30.5565    5.3677 H         1 UNK         0.0949 
    112 H112       27.6283   31.1808    5.6674 H         1 UNK         0.0806 
    113 H113       28.4488   29.7395    6.2677 H         1 UNK         0.0806 
    114 H114       28.8217   31.3129    6.9523 H         1 UNK         0.0806 
    115 H115       31.3307   32.4870    6.1614 H         1 UNK         0.3010 
    116 H116       31.9964   34.5620    6.3112 H         1 UNK         0.0829 
    117 H117       29.6251   35.3271    6.4469 H         1 UNK         0.0813 
    118 H118       30.6530   36.5073    5.6498 H         1 UNK         0.0813 
    119 H119       29.5740   35.5091    4.6936 H         1 UNK         0.0813 
    120 H120       31.0048   33.7008    3.0051 H         1 UNK         0.3038 
    121 H121       33.1112   35.2005    1.6723 H         1 UNK         0.0769 
    122 H122       32.4576   33.8074   -0.2996 H         1 UNK         0.0811 
    123 H123       31.0498   34.5330    0.4599 H         1 UNK         0.0811 
    124 H124       31.4119   32.8274    0.7189 H         1 UNK         0.0811 
    125 H125       32.6748   31.8055    2.7531 H         1 UNK         0.3204 
    126 H126       35.5355   31.4829    3.1984 H         1 UNK         0.0748 
    127 H127       35.6653   29.3911    1.8635 H         1 UNK         0.0771 
    128 H128       33.9691   29.5343    1.3996 H         1 UNK         0.0771 
    129 H129       35.1591   30.6852    0.8009 H         1 UNK         0.0771 
    130 H130       35.1009   28.6146    3.5981 H         1 UNK         0.2980 
    131 H131       34.6069   27.1633    5.1573 H         1 UNK         0.0545 
    132 H132       33.8078   28.3547    8.6972 H         1 UNK         0.3459 
    133 H133       32.7759   27.4769    7.5998 H         1 UNK         0.3459 
    134 H134       32.2332   26.8146    5.7917 H         1 UNK         0.0616 
    135 H135       31.8257   28.4318    5.2754 H         1 UNK         0.0616 
    136 H136       33.2348   25.0088    2.5891 H         1 UNK         0.0634 
    137 H137       33.5015   25.1675    4.3033 H         1 UNK         0.0634 
@<TRIPOS>BOND
     1    1    2 1    
     2    1   72 1    
     3    1   73 1    
     4    1   74 1    
     5    2    3 2    
     6    2    4 am   BACKBONE|DICT|INTERRES
     7    4    5 1    
     8    4   75 1    
     9    5    6 1    
    10    5   35 1    
    11    5   76 1    
    12    6    7 1    
    13    6   77 1    
    14    6   78 1    
    15    7    8 1    
    16    8    9 1    
    17    8   79 1    
    18    8   80 1    
    19    9   10 ar   
    20    9   14 ar   
    21   10   11 ar   
    22   10   81 1    
    23   11   12 ar   
    24   11   71 1    
    25   12   13 ar   
    26   12   82 1    
    27   13   14 ar   
    28   13   15 1    
    29   14   83 1    
    30   15   16 1    
    31   15   84 1    
    32   15   85 1    
    33   16   17 1    
    34   17   18 1    
    35   17   86 1    
    36   17   87 1    
    37   18   19 1    
    38   18   37 1    
    39   18   88 1    
    40   19   20 am   BACKBONE|DICT|INTERRES
    41   19   89 1    
    42   20   21 2    
    43   20   22 1    
    44   22   23 1    
    45   22   24 1    
    46   22   90 1    
    47   23   91 1    
    48   23   92 1    
    49   23   93 1    
    50   24   25 am   BACKBONE|DICT|INTERRES
    51   24   94 1    
    52   25   26 2    
    53   25   27 1    
    54   27   28 1    
    55   27   29 1    
    56   27   95 1    
    57   28   96 1    
    58   28   97 1    
    59   28   98 1    
    60   29   30 am   BACKBONE|DICT|INTERRES
    61   29   99 1    
    62   30   31 2    
    63   30   32 1    
    64   32   33 1    
    65   32   34 1    
    66   32  100 1    
    67   33  101 1    
    68   33  102 1    
    69   33  103 1    
    70   34   35 am   BACKBONE|DICT|INTERRES
    71   34  104 1    
    72   35   36 2    
    73   37   38 2    
    74   37   39 am   BACKBONE|DICT|INTERRES
    75   39   40 1    
    76   39  105 1    
    77   40   41 1    
    78   40   42 1    
    79   40  106 1    
    80   41  107 1    
    81   41  108 1    
    82   41  109 1    
    83   42   43 2    
    84   42   44 am   BACKBONE|DICT|INTERRES
    85   44   45 1    
    86   44  110 1    
    87   45   46 1    
    88   45   47 1    
    89   45  111 1    
    90   46  112 1    
    91   46  113 1    
    92   46  114 1    
    93   47   48 2    
    94   47   49 am   BACKBONE|DICT|INTERRES
    95   49   50 1    
    96   49  115 1    
    97   50   51 1    
    98   50   52 1    
    99   50  116 1    
   100   51  117 1    
   101   51  118 1    
   102   51  119 1    
   103   52   53 2    
   104   52   54 am   BACKBONE|DICT|INTERRES
   105   54   55 1    
   106   54  120 1    
   107   55   56 1    
   108   55   57 1    
   109   55  121 1    
   110   56  122 1    
   111   56  123 1    
   112   56  124 1    
   113   57   58 2    
   114   57   59 am   BACKBONE|DICT|INTERRES
   115   59   60 1    
   116   59  125 1    
   117   60   61 1    
   118   60   62 1    
   119   60  126 1    
   120   61  127 1    
   121   61  128 1    
   122   61  129 1    
   123   62   63 2    
   124   62   64 am   BACKBONE|DICT|INTERRES
   125   64   65 1    
   126   64  130 1    
   127   65   66 1    
   128   65   69 1    
   129   65  131 1    
   130   66   67 am   BACKBONE|DICT|INTERRES
   131   66   68 2    
   132   67  132 1    
   133   67  133 1    
   134   69   70 1    
   135   69  134 1    
   136   69  135 1    
   137   70   71 1    
   138   71  136 1    
   139   71  137 1    
@<TRIPOS>SUBSTRUCTURE
     1 UNK         1 GROUP             0       ****    0 ROOT    
