@<TRIPOS>MOLECULE
3R136
137   139    1
SMALL
USER_CHARGES


@<TRIPOS>ATOM
      1 CA         30.1716   25.0527   -2.6896 C.3       0 UNK        -0.1979 
      2 C          29.1309   24.4928   -1.7325 C.2       0 UNK         0.4864 
      3 O          27.9365   24.6555   -1.9815 O.2       0 UNK        -0.5359 
      4 N          29.5836   23.8201   -0.6613 N.am      1 UNK        -0.4318 
      5 CA         28.8052   23.2693    0.4638 C.3       1 UNK         0.0824 
      6 C6         29.7279   22.4287    1.3867 C.3       12 UNK        -0.0944 
      7 S7         28.9802   21.9812    2.9928 S.3       12 UNK        -0.2672 
      8 C8         30.2203   22.5737    4.1845 C.3       12 UNK         0.0333 
      9 C9         30.1673   24.0831    4.3659 C.ar      12 UNK        -0.0807 
     10 C10        31.1736   24.8973    3.8381 C.ar      12 UNK        -0.0894 
     11 C11        31.1516   26.2787    4.0521 C.ar      12 UNK        -0.0804 
     12 C12        30.1120   26.8458    4.7937 C.ar      12 UNK        -0.0824 
     13 C13        29.0935   26.0429    5.3152 C.ar      12 UNK        -0.0762 
     14 C14        29.1273   24.6623    5.0991 C.ar      12 UNK        -0.0782 
     15 C15        27.9661   26.6591    6.1292 C.3       12 UNK         0.0230 
     16 S16        26.4988   26.9886    5.1038 S.3       12 UNK        -0.2608 
     17 C17        27.0477   28.4271    4.1243 C.3       12 UNK        -0.0989 
     18 CA         27.3909   28.0615    2.6555 C.3       5 UNK         0.0716 
     19 N          26.2312   27.4849    1.9597 N.am      5 UNK        -0.4135 
     20 C          26.2765   26.7727    0.8273 C.2       4 UNK         0.5031 
     21 O          27.3306   26.4618    0.2710 O.2       4 UNK        -0.5229 
     22 CA         24.9321   26.4301    0.1729 C.3       4 UNK         0.0329 
     23 CB         24.2311   27.7249   -0.2992 C.3       4 UNK        -0.2001 
     24 N          25.1501   25.5295   -0.9620 N.am      4 UNK        -0.4303 
     25 C          24.1858   24.9032   -1.6512 C.2       3 UNK         0.5044 
     26 O          22.9898   24.9544   -1.3604 O.2       3 UNK        -0.5152 
     27 CA         24.6181   24.0815   -2.8735 C.3       3 UNK         0.0319 
     28 CB         25.1611   24.9895   -3.9909 C.3       3 UNK        -0.2001 
     29 N          25.6293   23.0978   -2.4974 N.am      3 UNK        -0.4354 
     30 C          25.3647   21.8301   -2.1508 C.2       2 UNK         0.4964 
     31 O          24.2418   21.3262   -2.2027 O.2       2 UNK        -0.5047 
     32 CA         26.5422   20.9636   -1.6617 C.3       2 UNK         0.0288 
     33 CB         27.0931   20.1063   -2.8131 C.3       2 UNK        -0.2113 
     34 N          27.6415   21.7273   -1.0659 N.am      2 UNK        -0.4145 
     35 C          27.5474   22.4686    0.0486 C.2       1 UNK         0.5006 
     36 O          26.5189   22.5556    0.7225 O.2       1 UNK        -0.5103 
     37 C          27.9525   29.2788    1.8781 C.2       5 UNK         0.5055 
     38 O          27.9812   30.3896    2.4097 O.2       5 UNK        -0.5220 
     39 N          28.3534   29.0583    0.6185 N.am      6 UNK        -0.4450 
     40 CA         28.6932   30.0781   -0.3802 C.3       6 UNK         0.0367 
     41 CB         29.0071   29.3842   -1.7158 C.3       6 UNK        -0.1929 
     42 C          29.8380   31.0251    0.0176 C.2       6 UNK         0.5070 
     43 O          29.7894   32.2066   -0.3253 O.2       6 UNK        -0.5237 
     44 N          30.8342   30.4985    0.7402 N.am      7 UNK        -0.4739 
     45 CA         31.9706   31.2645    1.2621 C.3       7 UNK         0.0276 
     46 CB         33.2253   30.3745    1.2350 C.3       7 UNK        -0.1927 
     47 C          31.7236   31.8181    2.6781 C.2       7 UNK         0.5013 
     48 O          32.6115   32.4794    3.2174 O.2       7 UNK        -0.5193 
     49 N          30.5564   31.5303    3.2766 N.am      8 UNK        -0.4253 
     50 CA         30.1870   31.8391    4.6617 C.3       8 UNK         0.0242 
     51 CB         29.9297   33.3544    4.8317 C.3       8 UNK        -0.2000 
     52 C          31.2155   31.2480    5.6463 C.2       8 UNK         0.4948 
     53 O          31.3821   30.0291    5.6689 O.2       8 UNK        -0.5275 
     54 N          31.9006   32.1040    6.4135 N.am      9 UNK        -0.4246 
     55 CA         32.9649   31.7155    7.3399 C.3       9 UNK         0.0261 
     56 CB         33.0008   32.7250    8.4999 C.3       9 UNK        -0.1959 
     57 C          34.3532   31.6150    6.6787 C.2       9 UNK         0.5033 
     58 O          35.2673   31.0839    7.3125 O.2       9 UNK        -0.5390 
     59 N          34.5216   32.1266    5.4471 N.am      10 UNK        -0.4215 
     60 CA         35.8275   32.2493    4.7828 C.3       10 UNK         0.0240 
     61 CB         35.7218   33.1950    3.5751 C.3       10 UNK        -0.1982 
     62 C          36.4643   30.9100    4.3727 C.2       10 UNK         0.4970 
     63 O          37.6724   30.8786    4.1338 O.2       10 UNK        -0.4916 
     64 N          35.6684   29.8339    4.3175 N.am      11 UNK        -0.4279 
     65 CA         36.1577   28.4582    4.1502 C.3       11 UNK         0.1003 
     66 C          36.8654   27.8641    5.4069 C.2       11 UNK         0.5709 
     67 N          36.8067   28.4969    6.5749 N.am      11 UNK        -0.7358 
     68 O          37.4964   26.8137    5.3135 O.2       11 UNK        -0.4999 
     69 C69        35.0602   27.5195    3.5846 C.3       12 UNK        -0.0954 
     70 S70        33.6240   27.3011    4.6904 S.3       12 UNK        -0.2268 
     71 C71        32.2615   27.1537    3.4959 C.3       12 UNK         0.0203 
     72 H72        30.0348   24.6258   -3.6828 H         1 UNK         0.0888 
     73 H73        30.0618   26.1341   -2.7657 H         1 UNK         0.0888 
     74 H74        31.1885   24.8366   -2.3628 H         1 UNK         0.0888 
     75 H75        30.5837   23.7236   -0.5614 H         1 UNK         0.3017 
     76 H76        28.4533   24.1309    1.0346 H         1 UNK         0.0873 
     77 H77        30.0380   21.5096    0.8857 H         1 UNK         0.0745 
     78 H78        30.6481   22.9814    1.5805 H         1 UNK         0.0745 
     79 H79        31.2142   22.2485    3.8727 H         1 UNK         0.0705 
     80 H80        30.0349   22.0939    5.1466 H         1 UNK         0.0705 
     81 H81        31.9863   24.4558    3.2775 H         1 UNK         0.1334 
     82 H82        30.1023   27.9122    4.9701 H         1 UNK         0.1417 
     83 H83        28.3453   24.0353    5.5062 H         1 UNK         0.1562 
     84 H84        28.2960   27.5796    6.6138 H         1 UNK         0.0748 
     85 H85        27.6841   25.9799    6.9352 H         1 UNK         0.0748 
     86 H86        27.9041   28.8900    4.6176 H         1 UNK         0.0940 
     87 H87        26.2533   29.1756    4.1543 H         1 UNK         0.0940 
     88 H88        28.1821   27.3089    2.6740 H         1 UNK         0.0703 
     89 H89        25.3300   27.7112    2.3540 H         1 UNK         0.3081 
     90 H90        24.3132   25.9185    0.9127 H         1 UNK         0.0719 
     91 H91        24.0713   28.4205    0.5253 H         1 UNK         0.0809 
     92 H92        23.2498   27.5238   -0.7280 H         1 UNK         0.0809 
     93 H93        24.8224   28.2455   -1.0538 H         1 UNK         0.0809 
     94 H94        26.1269   25.4035   -1.2218 H         1 UNK         0.2990 
     95 H95        23.7349   23.5731   -3.2664 H         1 UNK         0.0690 
     96 H96        25.4178   24.4108   -4.8783 H         1 UNK         0.0788 
     97 H97        26.0524   25.5361   -3.6813 H         1 UNK         0.0788 
     98 H98        24.4146   25.7268   -4.2892 H         1 UNK         0.0788 
     99 H99        26.5718   23.4608   -2.3686 H         1 UNK         0.2993 
    100 H100       26.1509   20.2949   -0.8919 H         1 UNK         0.0949 
    101 H101       26.3037   19.5011   -3.2614 H         1 UNK         0.0767 
    102 H102       27.5212   20.7222   -3.6053 H         1 UNK         0.0767 
    103 H103       27.8654   19.4204   -2.4642 H         1 UNK         0.0767 
    104 H104       28.5191   21.7282   -1.5649 H         1 UNK         0.3013 
    105 H105       28.2510   28.1043    0.2773 H         1 UNK         0.3121 
    106 H106       27.8027   30.6945   -0.5201 H         1 UNK         0.0774 
    107 H107       29.2312   30.1156   -2.4936 H         1 UNK         0.0815 
    108 H108       29.8690   28.7210   -1.6327 H         1 UNK         0.0815 
    109 H109       28.1610   28.7911   -2.0643 H         1 UNK         0.0815 
    110 H110       30.7909   29.5171    0.9741 H         1 UNK         0.2987 
    111 H111       32.1602   32.1251    0.6168 H         1 UNK         0.0949 
    112 H112       33.4259   30.0011    0.2308 H         1 UNK         0.0806 
    113 H113       34.1091   30.9284    1.5526 H         1 UNK         0.0806 
    114 H114       33.1266   29.5180    1.8986 H         1 UNK         0.0806 
    115 H115       29.8577   31.0138    2.7525 H         1 UNK         0.3010 
    116 H116       29.2470   31.3199    4.8548 H         1 UNK         0.0829 
    117 H117       29.1459   33.6901    4.1523 H         1 UNK         0.0813 
    118 H118       29.5922   33.5879    5.8424 H         1 UNK         0.0813 
    119 H119       30.8164   33.9548    4.6256 H         1 UNK         0.0813 
    120 H120       31.7136   33.0921    6.3184 H         1 UNK         0.3038 
    121 H121       32.7355   30.7324    7.7573 H         1 UNK         0.0769 
    122 H122       33.2361   33.7321    8.1534 H         1 UNK         0.0811 
    123 H123       33.7577   32.4489    9.2356 H         1 UNK         0.0811 
    124 H124       32.0447   32.7634    9.0224 H         1 UNK         0.0811 
    125 H125       33.7171   32.4633    4.9256 H         1 UNK         0.3204 
    126 H126       36.5085   32.7119    5.5005 H         1 UNK         0.0748 
    127 H127       36.7101   33.4192    3.1714 H         1 UNK         0.0771 
    128 H128       35.1382   32.7579    2.7657 H         1 UNK         0.0771 
    129 H129       35.2613   34.1445    3.8485 H         1 UNK         0.0771 
    130 H130       34.6913   29.9345    4.5491 H         1 UNK         0.2980 
    131 H131       36.9369   28.4966    3.3865 H         1 UNK         0.0545 
    132 H132       36.2889   29.3616    6.6789 H         1 UNK         0.3459 
    133 H133       37.2766   28.0980    7.3715 H         1 UNK         0.3459 
    134 H134       35.4761   26.5336    3.3696 H         1 UNK         0.0616 
    135 H135       34.7204   27.9079    2.6243 H         1 UNK         0.0616 
    136 H136       32.6258   26.7327    2.5575 H         1 UNK         0.0634 
    137 H137       31.8755   28.1479    3.2686 H         1 UNK         0.0634 
@<TRIPOS>BOND
     1    1    2 1    
     2    1   72 1    
     3    1   73 1    
     4    1   74 1    
     5    2    3 2    
     6    2    4 am   BACKBONE|DICT|INTERRES
     7    4    5 1    
     8    4   75 1    
     9    5    6 1    
    10    5   35 1    
    11    5   76 1    
    12    6    7 1    
    13    6   77 1    
    14    6   78 1    
    15    7    8 1    
    16    8    9 1    
    17    8   79 1    
    18    8   80 1    
    19    9   10 ar   
    20    9   14 ar   
    21   10   11 ar   
    22   10   81 1    
    23   11   12 ar   
    24   11   71 1    
    25   12   13 ar   
    26   12   82 1    
    27   13   14 ar   
    28   13   15 1    
    29   14   83 1    
    30   15   16 1    
    31   15   84 1    
    32   15   85 1    
    33   16   17 1    
    34   17   18 1    
    35   17   86 1    
    36   17   87 1    
    37   18   19 1    
    38   18   37 1    
    39   18   88 1    
    40   19   20 am   BACKBONE|DICT|INTERRES
    41   19   89 1    
    42   20   21 2    
    43   20   22 1    
    44   22   23 1    
    45   22   24 1    
    46   22   90 1    
    47   23   91 1    
    48   23   92 1    
    49   23   93 1    
    50   24   25 am   BACKBONE|DICT|INTERRES
    51   24   94 1    
    52   25   26 2    
    53   25   27 1    
    54   27   28 1    
    55   27   29 1    
    56   27   95 1    
    57   28   96 1    
    58   28   97 1    
    59   28   98 1    
    60   29   30 am   BACKBONE|DICT|INTERRES
    61   29   99 1    
    62   30   31 2    
    63   30   32 1    
    64   32   33 1    
    65   32   34 1    
    66   32  100 1    
    67   33  101 1    
    68   33  102 1    
    69   33  103 1    
    70   34   35 am   BACKBONE|DICT|INTERRES
    71   34  104 1    
    72   35   36 2    
    73   37   38 2    
    74   37   39 am   BACKBONE|DICT|INTERRES
    75   39   40 1    
    76   39  105 1    
    77   40   41 1    
    78   40   42 1    
    79   40  106 1    
    80   41  107 1    
    81   41  108 1    
    82   41  109 1    
    83   42   43 2    
    84   42   44 am   BACKBONE|DICT|INTERRES
    85   44   45 1    
    86   44  110 1    
    87   45   46 1    
    88   45   47 1    
    89   45  111 1    
    90   46  112 1    
    91   46  113 1    
    92   46  114 1    
    93   47   48 2    
    94   47   49 am   BACKBONE|DICT|INTERRES
    95   49   50 1    
    96   49  115 1    
    97   50   51 1    
    98   50   52 1    
    99   50  116 1    
   100   51  117 1    
   101   51  118 1    
   102   51  119 1    
   103   52   53 2    
   104   52   54 am   BACKBONE|DICT|INTERRES
   105   54   55 1    
   106   54  120 1    
   107   55   56 1    
   108   55   57 1    
   109   55  121 1    
   110   56  122 1    
   111   56  123 1    
   112   56  124 1    
   113   57   58 2    
   114   57   59 am   BACKBONE|DICT|INTERRES
   115   59   60 1    
   116   59  125 1    
   117   60   61 1    
   118   60   62 1    
   119   60  126 1    
   120   61  127 1    
   121   61  128 1    
   122   61  129 1    
   123   62   63 2    
   124   62   64 am   BACKBONE|DICT|INTERRES
   125   64   65 1    
   126   64  130 1    
   127   65   66 1    
   128   65   69 1    
   129   65  131 1    
   130   66   67 am   BACKBONE|DICT|INTERRES
   131   66   68 2    
   132   67  132 1    
   133   67  133 1    
   134   69   70 1    
   135   69  134 1    
   136   69  135 1    
   137   70   71 1    
   138   71  136 1    
   139   71  137 1    
@<TRIPOS>SUBSTRUCTURE
     1 UNK         1 GROUP             0       ****    0 ROOT    
