@<TRIPOS>MOLECULE
3R136
137   139    1
SMALL
USER_CHARGES


@<TRIPOS>ATOM
      1 CA         24.8843   20.7578    2.2283 C.3       0 UNK        -0.1979 
      2 C          25.8555   21.7065    1.5426 C.2       0 UNK         0.4864 
      3 O          25.8332   21.8284    0.3165 O.2       0 UNK        -0.5359 
      4 N          26.7003   22.3954    2.3210 N.am      1 UNK        -0.4318 
      5 CA         27.7376   23.3313    1.8637 C.3       1 UNK         0.0824 
      6 C6         28.8428   23.5143    2.9394 C.3       12 UNK        -0.0944 
      7 S7         29.6980   21.9546    3.3343 S.3       12 UNK        -0.2672 
      8 C8         31.0952   22.0017    2.1557 C.3       12 UNK         0.0333 
      9 C9         32.2185   22.9945    2.4704 C.ar      12 UNK        -0.0807 
     10 C10        33.1756   23.2428    1.4795 C.ar      12 UNK        -0.0894 
     11 C11        34.2534   24.1019    1.7161 C.ar      12 UNK        -0.0804 
     12 C12        34.3684   24.7267    2.9604 C.ar      12 UNK        -0.0824 
     13 C13        33.4211   24.4946    3.9616 C.ar      12 UNK        -0.0762 
     14 C14        32.3524   23.6279    3.7142 C.ar      12 UNK        -0.0782 
     15 C15        33.5862   25.1488    5.3244 C.3       12 UNK         0.0230 
     16 S16        32.9715   26.8597    5.3319 S.3       12 UNK        -0.2608 
     17 C17        31.1931   26.6391    5.6743 C.3       12 UNK        -0.0989 
     18 CA         30.3057   27.5251    4.7642 C.3       5 UNK         0.0716 
     19 N          30.4820   27.1715    3.3520 N.am      5 UNK        -0.4135 
     20 C          29.9191   27.7593    2.2900 C.2       4 UNK         0.5031 
     21 O          28.9834   28.5594    2.3610 O.2       4 UNK        -0.5229 
     22 CA         30.4862   27.3927    0.9097 C.3       4 UNK         0.0329 
     23 CB         31.3576   26.1188    0.8742 C.3       4 UNK        -0.2001 
     24 N          29.3876   27.2415   -0.0332 N.am      4 UNK        -0.4303 
     25 C          29.4575   27.4632   -1.3504 C.2       3 UNK         0.5044 
     26 O          30.4649   27.9037   -1.9070 O.2       3 UNK        -0.5152 
     27 CA         28.2239   27.0958   -2.2020 C.3       3 UNK         0.0319 
     28 CB         28.6309   26.3042   -3.4583 C.3       3 UNK        -0.2001 
     29 N          27.2468   26.3026   -1.4494 N.am      3 UNK        -0.4354 
     30 C          26.1880   26.8001   -0.7982 C.2       2 UNK         0.4964 
     31 O          25.8545   27.9833   -0.8392 O.2       2 UNK        -0.5047 
     32 CA         25.3707   25.8182    0.0609 C.3       2 UNK         0.0288 
     33 CB         24.1305   25.3330   -0.7064 C.3       2 UNK        -0.2113 
     34 N          26.1273   24.6526    0.5356 N.am      2 UNK        -0.4145 
     35 C          27.1443   24.6855    1.4075 C.2       1 UNK         0.5006 
     36 O          27.5996   25.7364    1.8603 O.2       1 UNK        -0.5103 
     37 C          28.8572   27.5596    5.3048 C.2       5 UNK         0.5055 
     38 O          28.6577   28.1368    6.3757 O.2       5 UNK        -0.5220 
     39 N          27.8734   26.9623    4.6129 N.am      6 UNK        -0.4450 
     40 CA         26.4666   27.0281    5.0263 C.3       6 UNK         0.0367 
     41 CB         25.6832   25.8347    4.4556 C.3       6 UNK        -0.1929 
     42 C          25.7858   28.3538    4.6366 C.2       6 UNK         0.5070 
     43 O          24.7172   28.6414    5.1780 O.2       6 UNK        -0.5237 
     44 N          26.3793   29.1265    3.7142 N.am      7 UNK        -0.4739 
     45 CA         25.8140   30.3851    3.2172 C.3       7 UNK         0.0276 
     46 CB         25.0913   30.1297    1.8844 C.3       7 UNK        -0.1927 
     47 C          26.8576   31.5000    3.0581 C.2       7 UNK         0.5013 
     48 O          26.5319   32.6579    3.3254 O.2       7 UNK        -0.5193 
     49 N          28.0719   31.1581    2.6132 N.am      8 UNK        -0.4253 
     50 CA         29.1676   32.0958    2.3761 C.3       8 UNK         0.0242 
     51 CB         29.9241   31.6514    1.1111 C.3       8 UNK        -0.2000 
     52 C          30.1213   32.1394    3.5782 C.2       8 UNK         0.4948 
     53 O          30.1224   31.2309    4.4132 O.2       8 UNK        -0.5275 
     54 N          30.9478   33.1915    3.6227 N.am      9 UNK        -0.4246 
     55 CA         32.0832   33.3056    4.5350 C.3       9 UNK         0.0261 
     56 CB         32.4766   34.7866    4.6807 C.3       9 UNK        -0.1959 
     57 C          33.2392   32.4580    3.9815 C.2       9 UNK         0.5033 
     58 O          33.8792   32.8742    3.0128 O.2       9 UNK        -0.5390 
     59 N          33.4446   31.2782    4.5824 N.am      10 UNK        -0.4215 
     60 CA         34.3499   30.2073    4.1455 C.3       10 UNK         0.0240 
     61 CB         35.8220   30.6816    4.1275 C.3       10 UNK        -0.1982 
     62 C          33.8899   29.5653    2.8180 C.2       10 UNK         0.4970 
     63 O          32.7226   29.6931    2.4435 O.2       10 UNK        -0.4916 
     64 N          34.7978   28.8431    2.1510 N.am      11 UNK        -0.4279 
     65 CA         34.5509   28.2023    0.8532 C.3       11 UNK         0.1003 
     66 C          34.4143   29.2412   -0.2941 C.2       11 UNK         0.5709 
     67 N          33.4311   29.0940   -1.1723 N.am      11 UNK        -0.7358 
     68 O          35.2210   30.1619   -0.4120 O.2       11 UNK        -0.4999 
     69 C69        35.6323   27.1325    0.5457 C.3       12 UNK        -0.0954 
     70 S70        34.9669   25.7397   -0.4285 S.3       12 UNK        -0.2268 
     71 C71        35.3159   24.3084    0.6437 C.3       12 UNK         0.0203 
     72 H72        23.8575   21.0501    2.0103 H         1 UNK         0.0888 
     73 H73        25.0345   19.7415    1.8651 H         1 UNK         0.0888 
     74 H74        25.0138   20.7537    3.3105 H         1 UNK         0.0888 
     75 H75        26.6655   22.2543    3.3206 H         1 UNK         0.3017 
     76 H76        28.2104   22.9015    0.9781 H         1 UNK         0.0873 
     77 H77        28.4147   23.9077    3.8631 H         1 UNK         0.0745 
     78 H78        29.5874   24.2447    2.6274 H         1 UNK         0.0745 
     79 H79        30.7001   22.2031    1.1587 H         1 UNK         0.0705 
     80 H80        31.5310   21.0026    2.1153 H         1 UNK         0.0705 
     81 H81        33.0910   22.7502    0.5201 H         1 UNK         0.1334 
     82 H82        35.2040   25.3827    3.1602 H         1 UNK         0.1417 
     83 H83        31.6412   23.4368    4.5047 H         1 UNK         0.1562 
     84 H84        34.6438   25.1600    5.5922 H         1 UNK         0.0748 
     85 H85        33.0877   24.5684    6.1024 H         1 UNK         0.0748 
     86 H86        31.0425   26.8867    6.7274 H         1 UNK         0.0940 
     87 H87        30.9137   25.5895    5.5690 H         1 UNK         0.0940 
     88 H88        30.6655   28.5526    4.8517 H         1 UNK         0.0703 
     89 H89        31.2330   26.5208    3.1769 H         1 UNK         0.3081 
     90 H90        31.1008   28.2446    0.6127 H         1 UNK         0.0719 
     91 H91        31.8519   26.0137   -0.0915 H         1 UNK         0.0809 
     92 H92        32.1450   26.1279    1.6261 H         1 UNK         0.0809 
     93 H93        30.7639   25.2195    1.0244 H         1 UNK         0.0809 
     94 H94        28.5131   26.9379    0.3811 H         1 UNK         0.2990 
     95 H95        27.7697   28.0338   -2.5276 H         1 UNK         0.0690 
     96 H96        29.3054   26.8855   -4.0885 H         1 UNK         0.0788 
     97 H97        27.7621   26.0525   -4.0668 H         1 UNK         0.0788 
     98 H98        29.1429   25.3759   -3.2021 H         1 UNK         0.0788 
     99 H99        27.4392   25.3152   -1.3618 H         1 UNK         0.2993 
    100 H100       25.0337   26.3730    0.9393 H         1 UNK         0.0949 
    101 H101       24.4038   24.7451   -1.5836 H         1 UNK         0.0767 
    102 H102       23.4903   24.7164   -0.0751 H         1 UNK         0.0767 
    103 H103       23.5289   26.1755   -1.0511 H         1 UNK         0.0767 
    104 H104       25.8199   23.7350    0.2213 H         1 UNK         0.3013 
    105 H105       28.0657   26.5599    3.7006 H         1 UNK         0.3121 
    106 H106       26.4217   26.9484    6.1148 H         1 UNK         0.0774 
    107 H107       25.4888   25.9518    3.3907 H         1 UNK         0.0815 
    108 H108       24.7116   25.7479    4.9433 H         1 UNK         0.0815 
    109 H109       26.2079   24.8925    4.6108 H         1 UNK         0.0815 
    110 H110       27.2680   28.8279    3.3223 H         1 UNK         0.2987 
    111 H111       25.0786   30.7641    3.9306 H         1 UNK         0.0949 
    112 H112       25.7808   29.7659    1.1224 H         1 UNK         0.0806 
    113 H113       24.2958   29.3929    1.9963 H         1 UNK         0.0806 
    114 H114       24.6361   31.0449    1.5034 H         1 UNK         0.0806 
    115 H115       28.3099   30.1759    2.4826 H         1 UNK         0.3010 
    116 H116       28.7707   33.0995    2.2085 H         1 UNK         0.0829 
    117 H117       29.2576   31.5860    0.2510 H         1 UNK         0.0813 
    118 H118       30.7162   32.3559    0.8547 H         1 UNK         0.0813 
    119 H119       30.3931   30.6759    1.2444 H         1 UNK         0.0813 
    120 H120       30.9053   33.8735    2.8790 H         1 UNK         0.3038 
    121 H121       31.7978   32.9342    5.5220 H         1 UNK         0.0769 
    122 H122       32.7495   35.2336    3.7239 H         1 UNK         0.0811 
    123 H123       33.3332   34.8962    5.3470 H         1 UNK         0.0811 
    124 H124       31.6604   35.3731    5.1030 H         1 UNK         0.0811 
    125 H125       32.7987   31.0166    5.3148 H         1 UNK         0.3204 
    126 H126       34.2698   29.4301    4.9051 H         1 UNK         0.0748 
    127 H127       36.5112   29.8391    4.0645 H         1 UNK         0.0771 
    128 H128       36.0288   31.3389    3.2819 H         1 UNK         0.0771 
    129 H129       36.0724   31.2248    5.0389 H         1 UNK         0.0771 
    130 H130       35.7440   28.8053    2.4976 H         1 UNK         0.2980 
    131 H131       33.5940   27.6949    0.9528 H         1 UNK         0.0545 
    132 H132       33.3496   29.7599   -1.9236 H         1 UNK         0.3459 
    133 H133       32.7619   28.3414   -1.1075 H         1 UNK         0.3459 
    134 H134       36.4840   27.5620    0.0146 H         1 UNK         0.0616 
    135 H135       36.0460   26.7348    1.4722 H         1 UNK         0.0616 
    136 H136       36.3021   24.4142    1.0983 H         1 UNK         0.0634 
    137 H137       35.3752   23.4191    0.0146 H         1 UNK         0.0634 
@<TRIPOS>BOND
     1    1    2 1    
     2    1   72 1    
     3    1   73 1    
     4    1   74 1    
     5    2    3 2    
     6    2    4 am   BACKBONE|DICT|INTERRES
     7    4    5 1    
     8    4   75 1    
     9    5    6 1    
    10    5   35 1    
    11    5   76 1    
    12    6    7 1    
    13    6   77 1    
    14    6   78 1    
    15    7    8 1    
    16    8    9 1    
    17    8   79 1    
    18    8   80 1    
    19    9   10 ar   
    20    9   14 ar   
    21   10   11 ar   
    22   10   81 1    
    23   11   12 ar   
    24   11   71 1    
    25   12   13 ar   
    26   12   82 1    
    27   13   14 ar   
    28   13   15 1    
    29   14   83 1    
    30   15   16 1    
    31   15   84 1    
    32   15   85 1    
    33   16   17 1    
    34   17   18 1    
    35   17   86 1    
    36   17   87 1    
    37   18   19 1    
    38   18   37 1    
    39   18   88 1    
    40   19   20 am   BACKBONE|DICT|INTERRES
    41   19   89 1    
    42   20   21 2    
    43   20   22 1    
    44   22   23 1    
    45   22   24 1    
    46   22   90 1    
    47   23   91 1    
    48   23   92 1    
    49   23   93 1    
    50   24   25 am   BACKBONE|DICT|INTERRES
    51   24   94 1    
    52   25   26 2    
    53   25   27 1    
    54   27   28 1    
    55   27   29 1    
    56   27   95 1    
    57   28   96 1    
    58   28   97 1    
    59   28   98 1    
    60   29   30 am   BACKBONE|DICT|INTERRES
    61   29   99 1    
    62   30   31 2    
    63   30   32 1    
    64   32   33 1    
    65   32   34 1    
    66   32  100 1    
    67   33  101 1    
    68   33  102 1    
    69   33  103 1    
    70   34   35 am   BACKBONE|DICT|INTERRES
    71   34  104 1    
    72   35   36 2    
    73   37   38 2    
    74   37   39 am   BACKBONE|DICT|INTERRES
    75   39   40 1    
    76   39  105 1    
    77   40   41 1    
    78   40   42 1    
    79   40  106 1    
    80   41  107 1    
    81   41  108 1    
    82   41  109 1    
    83   42   43 2    
    84   42   44 am   BACKBONE|DICT|INTERRES
    85   44   45 1    
    86   44  110 1    
    87   45   46 1    
    88   45   47 1    
    89   45  111 1    
    90   46  112 1    
    91   46  113 1    
    92   46  114 1    
    93   47   48 2    
    94   47   49 am   BACKBONE|DICT|INTERRES
    95   49   50 1    
    96   49  115 1    
    97   50   51 1    
    98   50   52 1    
    99   50  116 1    
   100   51  117 1    
   101   51  118 1    
   102   51  119 1    
   103   52   53 2    
   104   52   54 am   BACKBONE|DICT|INTERRES
   105   54   55 1    
   106   54  120 1    
   107   55   56 1    
   108   55   57 1    
   109   55  121 1    
   110   56  122 1    
   111   56  123 1    
   112   56  124 1    
   113   57   58 2    
   114   57   59 am   BACKBONE|DICT|INTERRES
   115   59   60 1    
   116   59  125 1    
   117   60   61 1    
   118   60   62 1    
   119   60  126 1    
   120   61  127 1    
   121   61  128 1    
   122   61  129 1    
   123   62   63 2    
   124   62   64 am   BACKBONE|DICT|INTERRES
   125   64   65 1    
   126   64  130 1    
   127   65   66 1    
   128   65   69 1    
   129   65  131 1    
   130   66   67 am   BACKBONE|DICT|INTERRES
   131   66   68 2    
   132   67  132 1    
   133   67  133 1    
   134   69   70 1    
   135   69  134 1    
   136   69  135 1    
   137   70   71 1    
   138   71  136 1    
   139   71  137 1    
@<TRIPOS>SUBSTRUCTURE
     1 UNK         1 GROUP             0       ****    0 ROOT    
