@<TRIPOS>MOLECULE
3R136
137   139    1
SMALL
USER_CHARGES


@<TRIPOS>ATOM
      1 CA         30.1089   20.0588   -4.0479 C.3       0 UNK        -0.1979 
      2 C          29.6551   20.9512   -2.9025 C.2       0 UNK         0.4864 
      3 O          28.6576   20.6403   -2.2508 O.2       0 UNK        -0.5359 
      4 N          30.3812   22.0537   -2.6644 N.am      1 UNK        -0.4318 
      5 CA         30.1462   23.0544   -1.6116 C.3       1 UNK         0.0824 
      6 C6         30.3737   22.5177   -0.1718 C.3       12 UNK        -0.0944 
      7 S7         32.0408   21.8166    0.0777 S.3       12 UNK        -0.2672 
      8 C8         32.9557   23.2564    0.7358 C.3       12 UNK         0.0333 
      9 C9         32.5925   23.7158    2.1516 C.ar      12 UNK        -0.0807 
     10 C10        33.2321   24.8527    2.6550 C.ar      12 UNK        -0.0894 
     11 C11        32.9538   25.3376    3.9365 C.ar      12 UNK        -0.0804 
     12 C12        32.0006   24.6755    4.7193 C.ar      12 UNK        -0.0824 
     13 C13        31.3503   23.5381    4.2349 C.ar      12 UNK        -0.0762 
     14 C14        31.6580   23.0561    2.9607 C.ar      12 UNK        -0.0782 
     15 C15        30.3093   22.8245    5.0824 C.3       12 UNK         0.0230 
     16 S16        28.6221   23.3374    4.6310 S.3       12 UNK        -0.2608 
     17 C17        28.5179   24.9986    5.3824 C.3       12 UNK        -0.0989 
     18 CA         28.5986   26.1572    4.3461 C.3       5 UNK         0.0716 
     19 N          27.6118   26.0468    3.2593 N.am      5 UNK        -0.4135 
     20 C          26.2790   26.1393    3.3822 C.2       4 UNK         0.5031 
     21 O          25.6993   26.2103    4.4672 O.2       4 UNK        -0.5229 
     22 CA         25.4423   26.1884    2.0856 C.3       4 UNK         0.0329 
     23 CB         24.2334   27.1356    2.2317 C.3       4 UNK        -0.2001 
     24 N          26.1725   26.5154    0.8497 N.am      4 UNK        -0.4303 
     25 C          26.9053   27.6085    0.5788 C.2       3 UNK         0.5044 
     26 O          27.2194   28.4459    1.4263 O.2       3 UNK        -0.5152 
     27 CA         27.3650   27.7847   -0.8821 C.3       3 UNK         0.0319 
     28 CB         28.7388   28.4664   -1.0185 C.3       3 UNK        -0.2001 
     29 N          27.3794   26.5084   -1.5955 N.am      3 UNK        -0.4354 
     30 C          27.1186   26.3120   -2.8913 C.2       2 UNK         0.4964 
     31 O          26.8239   27.2189   -3.6720 O.2       2 UNK        -0.5047 
     32 CA         27.2103   24.8511   -3.3908 C.3       2 UNK         0.0288 
     33 CB         27.0416   24.7344   -4.9179 C.3       2 UNK        -0.2113 
     34 N          28.4552   24.1737   -3.0023 N.am      2 UNK        -0.4145 
     35 C          28.7776   23.7554   -1.7684 C.2       1 UNK         0.5006 
     36 O          28.0462   23.9248   -0.7882 O.2       1 UNK        -0.5103 
     37 C          28.5577   27.5491    5.0312 C.2       5 UNK         0.5055 
     38 O          28.9101   27.6610    6.2068 O.2       5 UNK        -0.5220 
     39 N          28.1010   28.5777    4.3024 N.am      6 UNK        -0.4450 
     40 CA         27.8933   29.9361    4.8010 C.3       6 UNK         0.0367 
     41 CB         26.6433   30.5085    4.1033 C.3       6 UNK        -0.1929 
     42 C          29.1322   30.8145    4.5620 C.2       6 UNK         0.5070 
     43 O          30.1878   30.3187    4.1579 O.2       6 UNK        -0.5237 
     44 N          28.9741   32.1305    4.7648 N.am      7 UNK        -0.4739 
     45 CA         29.9952   33.1503    4.4931 C.3       7 UNK         0.0276 
     46 CB         29.4723   34.5288    4.9253 C.3       7 UNK        -0.1927 
     47 C          30.4520   33.1808    3.0231 C.2       7 UNK         0.5013 
     48 O          31.6174   33.4724    2.7608 O.2       7 UNK        -0.5193 
     49 N          29.5526   32.8038    2.1022 N.am      8 UNK        -0.4253 
     50 CA         29.8357   32.5826    0.6813 C.3       8 UNK         0.0242 
     51 CB         28.5111   32.3526   -0.0640 C.3       8 UNK        -0.2000 
     52 C          30.8144   31.4203    0.4182 C.2       8 UNK         0.4948 
     53 O          31.5370   31.4623   -0.5776 O.2       8 UNK        -0.5275 
     54 N          30.8398   30.4222    1.3144 N.am      9 UNK        -0.4246 
     55 CA         31.7968   29.3124    1.3041 C.3       9 UNK         0.0261 
     56 CB         31.1227   28.0664    1.9116 C.3       9 UNK        -0.1959 
     57 C          33.0814   29.6489    2.0872 C.2       9 UNK         0.5033 
     58 O          34.0292   28.8658    2.0308 O.2       9 UNK        -0.5390 
     59 N          33.0792   30.7778    2.8140 N.am      10 UNK        -0.4215 
     60 CA         34.0726   31.2354    3.7903 C.3       10 UNK         0.0240 
     61 CB         35.4717   31.3994    3.1565 C.3       10 UNK        -0.1982 
     62 C          34.0755   30.3965    5.0847 C.2       10 UNK         0.4970 
     63 O          35.1378   30.2099    5.6811 O.2       10 UNK        -0.4916 
     64 N          32.8912   29.9391    5.5138 N.am      11 UNK        -0.4279 
     65 CA         32.6547   29.2574    6.7971 C.3       11 UNK         0.1003 
     66 C          31.5766   30.0031    7.6340 C.2       11 UNK         0.5709 
     67 N          31.2525   29.5082    8.8214 N.am      11 UNK        -0.7358 
     68 O          31.0591   31.0503    7.2507 O.2       11 UNK        -0.4999 
     69 C69        32.3335   27.7492    6.5924 C.3       12 UNK        -0.0954 
     70 S70        33.8336   26.7825    6.2173 S.3       12 UNK        -0.2268 
     71 C71        33.6863   26.5917    4.4119 C.3       12 UNK         0.0203 
     72 H72        31.0089   20.4388   -4.5307 H         1 UNK         0.0888 
     73 H73        30.3210   19.0555   -3.6789 H         1 UNK         0.0888 
     74 H74        29.3243   19.9870   -4.8011 H         1 UNK         0.0888 
     75 H75        31.1915   22.2293   -3.2420 H         1 UNK         0.3017 
     76 H76        30.8855   23.8391   -1.7780 H         1 UNK         0.0873 
     77 H77        29.6428   21.7438    0.0676 H         1 UNK         0.0745 
     78 H78        30.2148   23.3133    0.5576 H         1 UNK         0.0745 
     79 H79        34.0177   23.0082    0.7208 H         1 UNK         0.0705 
     80 H80        32.8272   24.0918    0.0461 H         1 UNK         0.0705 
     81 H81        33.9555   25.3707    2.0392 H         1 UNK         0.1334 
     82 H82        31.7551   25.0411    5.7054 H         1 UNK         0.1417 
     83 H83        31.1481   22.1719    2.6071 H         1 UNK         0.1562 
     84 H84        30.4826   23.0000    6.1452 H         1 UNK         0.0748 
     85 H85        30.3982   21.7467    4.9375 H         1 UNK         0.0748 
     86 H86        29.3074   25.0978    6.1290 H         1 UNK         0.0940 
     87 H87        27.5826   25.0538    5.9417 H         1 UNK         0.0940 
     88 H88        29.5759   26.0997    3.8653 H         1 UNK         0.0703 
     89 H89        27.9902   25.9757    2.3270 H         1 UNK         0.3081 
     90 H90        25.0558   25.1786    1.9478 H         1 UNK         0.0719 
     91 H91        24.5490   28.1601    2.4279 H         1 UNK         0.0809 
     92 H92        23.6213   27.1408    1.3306 H         1 UNK         0.0809 
     93 H93        23.5870   26.8309    3.0556 H         1 UNK         0.0809 
     94 H94        26.0026   25.8811    0.0826 H         1 UNK         0.2990 
     95 H95        26.6182   28.4367   -1.3397 H         1 UNK         0.0690 
     96 H96        28.9308   28.7560   -2.0516 H         1 UNK         0.0788 
     97 H97        29.5482   27.8071   -0.7073 H         1 UNK         0.0788 
     98 H98        28.7964   29.3728   -0.4186 H         1 UNK         0.0788 
     99 H99        27.6346   25.6853   -1.0527 H         1 UNK         0.2993 
    100 H100       26.3790   24.3147   -2.9280 H         1 UNK         0.0949 
    101 H101       27.0463   23.6926   -5.2395 H         1 UNK         0.0767 
    102 H102       26.0930   25.1646   -5.2424 H         1 UNK         0.0767 
    103 H103       27.8369   25.2556   -5.4525 H         1 UNK         0.0767 
    104 H104       29.1213   24.0124   -3.7440 H         1 UNK         0.3013 
    105 H105       27.8574   28.4225    3.3284 H         1 UNK         0.3121 
    106 H106       27.7087   29.9088    5.8770 H         1 UNK         0.0774 
    107 H107       26.3424   31.4653    4.5305 H         1 UNK         0.0815 
    108 H108       26.8094   30.6597    3.0357 H         1 UNK         0.0815 
    109 H109       25.7918   29.8358    4.2107 H         1 UNK         0.0815 
    110 H110       28.0870   32.4632    5.1145 H         1 UNK         0.2987 
    111 H111       30.8701   32.9079    5.1006 H         1 UNK         0.0949 
    112 H112       28.5764   34.8146    4.3728 H         1 UNK         0.0806 
    113 H113       29.2327   34.5461    5.9886 H         1 UNK         0.0806 
    114 H114       30.2225   35.3019    4.7525 H         1 UNK         0.0806 
    115 H115       28.6177   32.5918    2.4179 H         1 UNK         0.3010 
    116 H116       30.2982   33.4905    0.2887 H         1 UNK         0.0829 
    117 H117       27.8638   33.2273    0.0010 H         1 UNK         0.0813 
    118 H118       28.6858   32.1594   -1.1234 H         1 UNK         0.0813 
    119 H119       27.9623   31.5000    0.3376 H         1 UNK         0.0813 
    120 H120       30.2447   30.4742    2.1343 H         1 UNK         0.3038 
    121 H121       32.0762   29.0841    0.2734 H         1 UNK         0.0769 
    122 H122       31.0195   28.1473    2.9937 H         1 UNK         0.0811 
    123 H123       31.7142   27.1730    1.7117 H         1 UNK         0.0811 
    124 H124       30.1285   27.8969    1.5030 H         1 UNK         0.0811 
    125 H125       32.2610   31.3693    2.7423 H         1 UNK         0.3204 
    126 H126       33.7443   32.2309    4.0928 H         1 UNK         0.0748 
    127 H127       36.1503   31.9126    3.8390 H         1 UNK         0.0771 
    128 H128       35.9254   30.4379    2.9149 H         1 UNK         0.0771 
    129 H129       35.4261   31.9902    2.2416 H         1 UNK         0.0771 
    130 H130       32.0470   30.1668    4.9970 H         1 UNK         0.2980 
    131 H131       33.5543   29.3322    7.4106 H         1 UNK         0.0545 
    132 H132       31.6773   28.6639    9.1706 H         1 UNK         0.3459 
    133 H133       30.5660   29.9917    9.3784 H         1 UNK         0.3459 
    134 H134       31.8997   27.3033    7.4882 H         1 UNK         0.0616 
    135 H135       31.5904   27.6165    5.8050 H         1 UNK         0.0616 
    136 H136       34.6950   26.6058    3.9964 H         1 UNK         0.0634 
    137 H137       33.1761   27.4632    4.0093 H         1 UNK         0.0634 
@<TRIPOS>BOND
     1    1    2 1    
     2    1   72 1    
     3    1   73 1    
     4    1   74 1    
     5    2    3 2    
     6    2    4 am   BACKBONE|DICT|INTERRES
     7    4    5 1    
     8    4   75 1    
     9    5    6 1    
    10    5   35 1    
    11    5   76 1    
    12    6    7 1    
    13    6   77 1    
    14    6   78 1    
    15    7    8 1    
    16    8    9 1    
    17    8   79 1    
    18    8   80 1    
    19    9   10 ar   
    20    9   14 ar   
    21   10   11 ar   
    22   10   81 1    
    23   11   12 ar   
    24   11   71 1    
    25   12   13 ar   
    26   12   82 1    
    27   13   14 ar   
    28   13   15 1    
    29   14   83 1    
    30   15   16 1    
    31   15   84 1    
    32   15   85 1    
    33   16   17 1    
    34   17   18 1    
    35   17   86 1    
    36   17   87 1    
    37   18   19 1    
    38   18   37 1    
    39   18   88 1    
    40   19   20 am   BACKBONE|DICT|INTERRES
    41   19   89 1    
    42   20   21 2    
    43   20   22 1    
    44   22   23 1    
    45   22   24 1    
    46   22   90 1    
    47   23   91 1    
    48   23   92 1    
    49   23   93 1    
    50   24   25 am   BACKBONE|DICT|INTERRES
    51   24   94 1    
    52   25   26 2    
    53   25   27 1    
    54   27   28 1    
    55   27   29 1    
    56   27   95 1    
    57   28   96 1    
    58   28   97 1    
    59   28   98 1    
    60   29   30 am   BACKBONE|DICT|INTERRES
    61   29   99 1    
    62   30   31 2    
    63   30   32 1    
    64   32   33 1    
    65   32   34 1    
    66   32  100 1    
    67   33  101 1    
    68   33  102 1    
    69   33  103 1    
    70   34   35 am   BACKBONE|DICT|INTERRES
    71   34  104 1    
    72   35   36 2    
    73   37   38 2    
    74   37   39 am   BACKBONE|DICT|INTERRES
    75   39   40 1    
    76   39  105 1    
    77   40   41 1    
    78   40   42 1    
    79   40  106 1    
    80   41  107 1    
    81   41  108 1    
    82   41  109 1    
    83   42   43 2    
    84   42   44 am   BACKBONE|DICT|INTERRES
    85   44   45 1    
    86   44  110 1    
    87   45   46 1    
    88   45   47 1    
    89   45  111 1    
    90   46  112 1    
    91   46  113 1    
    92   46  114 1    
    93   47   48 2    
    94   47   49 am   BACKBONE|DICT|INTERRES
    95   49   50 1    
    96   49  115 1    
    97   50   51 1    
    98   50   52 1    
    99   50  116 1    
   100   51  117 1    
   101   51  118 1    
   102   51  119 1    
   103   52   53 2    
   104   52   54 am   BACKBONE|DICT|INTERRES
   105   54   55 1    
   106   54  120 1    
   107   55   56 1    
   108   55   57 1    
   109   55  121 1    
   110   56  122 1    
   111   56  123 1    
   112   56  124 1    
   113   57   58 2    
   114   57   59 am   BACKBONE|DICT|INTERRES
   115   59   60 1    
   116   59  125 1    
   117   60   61 1    
   118   60   62 1    
   119   60  126 1    
   120   61  127 1    
   121   61  128 1    
   122   61  129 1    
   123   62   63 2    
   124   62   64 am   BACKBONE|DICT|INTERRES
   125   64   65 1    
   126   64  130 1    
   127   65   66 1    
   128   65   69 1    
   129   65  131 1    
   130   66   67 am   BACKBONE|DICT|INTERRES
   131   66   68 2    
   132   67  132 1    
   133   67  133 1    
   134   69   70 1    
   135   69  134 1    
   136   69  135 1    
   137   70   71 1    
   138   71  136 1    
   139   71  137 1    
@<TRIPOS>SUBSTRUCTURE
     1 UNK         1 GROUP             0       ****    0 ROOT    
