@<TRIPOS>MOLECULE
3R136
137   139    1
SMALL
USER_CHARGES


@<TRIPOS>ATOM
      1 CA         31.2210   24.3042   -3.5897 C.3       0 UNK        -0.1979 
      2 C          30.1218   24.5524   -2.5685 C.2       0 UNK         0.4864 
      3 O          28.9412   24.5294   -2.9207 O.2       0 UNK        -0.5359 
      4 N          30.4936   24.7618   -1.2966 N.am      1 UNK        -0.4318 
      5 CA         29.5801   25.0720   -0.1863 C.3       1 UNK         0.0824 
      6 C6         30.3288   25.5798    1.0704 C.3       12 UNK        -0.0944 
      7 S7         31.5696   24.4185    1.7378 S.3       12 UNK        -0.2672 
      8 C8         30.6260   23.5273    3.0217 C.3       12 UNK         0.0333 
      9 C9         30.0937   24.4411    4.1190 C.ar      12 UNK        -0.0807 
     10 C10        30.9822   25.1330    4.9463 C.ar      12 UNK        -0.0894 
     11 C11        30.5055   25.9427    5.9804 C.ar      12 UNK        -0.0804 
     12 C12        29.1278   26.0647    6.1814 C.ar      12 UNK        -0.0824 
     13 C13        28.2246   25.3734    5.3665 C.ar      12 UNK        -0.0762 
     14 C14        28.7158   24.5640    4.3342 C.ar      12 UNK        -0.0782 
     15 C15        26.7293   25.4517    5.6670 C.3       12 UNK         0.0230 
     16 S16        25.6788   25.7190    4.2005 S.3       12 UNK        -0.2608 
     17 C17        26.1454   27.4076    3.6905 C.3       12 UNK        -0.0989 
     18 CA         26.6237   27.4441    2.2197 C.3       5 UNK         0.0716 
     19 N          25.5845   26.9859    1.2899 N.am      5 UNK        -0.4135 
     20 C          25.7559   26.7975   -0.0240 C.2       4 UNK         0.5031 
     21 O          26.7862   27.0793   -0.6405 O.2       4 UNK        -0.5229 
     22 CA         24.5974   26.1554   -0.7902 C.3       4 UNK         0.0329 
     23 CB         23.8261   27.2017   -1.6159 C.3       4 UNK        -0.2001 
     24 N          25.1858   25.1388   -1.6550 N.am      4 UNK        -0.4303 
     25 C          24.5472   24.1214   -2.2406 C.2       3 UNK         0.5044 
     26 O          23.3289   23.9483   -2.1908 O.2       3 UNK        -0.5152 
     27 CA         25.4323   23.1074   -2.9842 C.3       3 UNK         0.0319 
     28 CB         25.8975   23.6699   -4.3374 C.3       3 UNK        -0.2001 
     29 N          26.5953   22.7148   -2.1816 N.am      3 UNK        -0.4354 
     30 C          26.5307   21.8793   -1.1306 C.2       2 UNK         0.4964 
     31 O          25.4998   21.3019   -0.7835 O.2       2 UNK        -0.5047 
     32 CA         27.8209   21.6329   -0.3236 C.3       2 UNK         0.0288 
     33 CB         28.5200   20.3498   -0.8010 C.3       2 UNK        -0.2113 
     34 N          28.7669   22.7463   -0.3903 N.am      2 UNK        -0.4145 
     35 C          28.5639   23.9556    0.1517 C.2       1 UNK         0.5006 
     36 O          27.6084   24.2107    0.8845 O.2       1 UNK        -0.5103 
     37 C          27.1522   28.8441    1.8526 C.2       5 UNK         0.5055 
     38 O          26.3593   29.7422    1.5560 O.2       5 UNK        -0.5220 
     39 N          28.4810   28.9964    1.8905 N.am      6 UNK        -0.4450 
     40 CA         29.1821   30.2481    1.6130 C.3       6 UNK         0.0367 
     41 CB         30.6622   29.9333    1.3398 C.3       6 UNK        -0.1929 
     42 C          29.0665   31.2290    2.7883 C.2       6 UNK         0.5070 
     43 O          28.9048   30.8064    3.9364 O.2       6 UNK        -0.5237 
     44 N          29.2337   32.5234    2.4940 N.am      7 UNK        -0.4739 
     45 CA         29.3139   33.6052    3.4792 C.3       7 UNK         0.0276 
     46 CB         28.9792   34.9388    2.7850 C.3       7 UNK        -0.1927 
     47 C          30.6962   33.6230    4.1602 C.2       7 UNK         0.5013 
     48 O          31.4862   34.5395    3.9316 O.2       7 UNK        -0.5193 
     49 N          30.9865   32.5627    4.9267 N.am      8 UNK        -0.4253 
     50 CA         32.2092   32.2689    5.6909 C.3       8 UNK         0.0242 
     51 CB         32.4680   33.3486    6.7601 C.3       8 UNK        -0.2000 
     52 C          33.4803   32.0086    4.8566 C.2       8 UNK         0.4948 
     53 O          34.4094   31.3968    5.3809 O.2       8 UNK        -0.5275 
     54 N          33.5145   32.4419    3.5893 N.am      9 UNK        -0.4246 
     55 CA         34.6663   32.3737    2.6806 C.3       9 UNK         0.0261 
     56 CB         34.2852   33.0260    1.3415 C.3       9 UNK        -0.1959 
     57 C          35.2391   30.9631    2.4436 C.2       9 UNK         0.5033 
     58 O          36.4499   30.8318    2.2586 O.2       9 UNK        -0.5390 
     59 N          34.3715   29.9431    2.4562 N.am      10 UNK        -0.4215 
     60 CA         34.7464   28.5323    2.3112 C.3       10 UNK         0.0240 
     61 CB         33.6295   27.7968    1.5489 C.3       10 UNK        -0.1982 
     62 C          35.0079   27.8360    3.6605 C.2       10 UNK         0.4970 
     63 O          35.4593   26.6897    3.6567 O.2       10 UNK        -0.4916 
     64 N          34.6862   28.4995    4.7770 N.am      11 UNK        -0.4279 
     65 CA         34.7238   27.9328    6.1306 C.3       11 UNK         0.1003 
     66 C          36.1144   28.0908    6.8029 C.2       11 UNK         0.5709 
     67 N          36.3541   27.3786    7.8961 N.am      11 UNK        -0.7358 
     68 O          36.9751   28.8505    6.3611 O.2       11 UNK        -0.4999 
     69 C69        33.5806   28.5066    7.0129 C.3       12 UNK        -0.0954 
     70 S70        31.9386   28.2847    6.2439 S.3       12 UNK        -0.2268 
     71 C71        31.4860   26.6528    6.8992 C.3       12 UNK         0.0203 
     72 H72        32.2121   24.3326   -3.1374 H         1 UNK         0.0888 
     73 H73        31.0872   23.3282   -4.0553 H         1 UNK         0.0888 
     74 H74        31.1826   25.0626   -4.3711 H         1 UNK         0.0888 
     75 H75        31.4742   24.7393   -1.0524 H         1 UNK         0.3017 
     76 H76        28.9773   25.9082   -0.5384 H         1 UNK         0.0873 
     77 H77        29.6255   25.8619    1.8535 H         1 UNK         0.0745 
     78 H78        30.8550   26.5016    0.8192 H         1 UNK         0.0745 
     79 H79        31.2806   22.7818    3.4752 H         1 UNK         0.0705 
     80 H80        29.8157   22.9674    2.5542 H         1 UNK         0.0705 
     81 H81        32.0478   25.0342    4.7878 H         1 UNK         0.1334 
     82 H82        28.7618   26.6816    6.9910 H         1 UNK         0.1417 
     83 H83        28.0227   24.0186    3.7071 H         1 UNK         0.1562 
     84 H84        26.5188   26.2406    6.3910 H         1 UNK         0.0748 
     85 H85        26.4270   24.5167    6.1404 H         1 UNK         0.0748 
     86 H86        26.9270   27.7813    4.3558 H         1 UNK         0.0940 
     87 H87        25.2860   28.0655    3.8346 H         1 UNK         0.0940 
     88 H88        27.4506   26.7382    2.1232 H         1 UNK         0.0703 
     89 H89        24.7040   26.7309    1.7116 H         1 UNK         0.3081 
     90 H90        23.9194   25.6702   -0.0848 H         1 UNK         0.0719 
     91 H91        23.4176   27.9816   -0.9720 H         1 UNK         0.0809 
     92 H92        24.4704   27.6875   -2.3499 H         1 UNK         0.0809 
     93 H93        22.9892   26.7525   -2.1505 H         1 UNK         0.0809 
     94 H94        26.1927   25.2064   -1.7417 H         1 UNK         0.2990 
     95 H95        24.8305   22.2174   -3.1815 H         1 UNK         0.0690 
     96 H96        26.5105   24.5642   -4.2183 H         1 UNK         0.0788 
     97 H97        25.0438   23.9405   -4.9603 H         1 UNK         0.0788 
     98 H98        26.4831   22.9356   -4.8908 H         1 UNK         0.0788 
     99 H99        27.4752   23.1711   -2.4021 H         1 UNK         0.2993 
    100 H100       27.5310   21.4991    0.7211 H         1 UNK         0.0949 
    101 H101       28.8468   20.4295   -1.8387 H         1 UNK         0.0767 
    102 H102       29.3931   20.1222   -0.1890 H         1 UNK         0.0767 
    103 H103       27.8482   19.4925   -0.7357 H         1 UNK         0.0767 
    104 H104       29.5848   22.6186   -0.9678 H         1 UNK         0.3013 
    105 H105       29.0503   28.2284    2.2119 H         1 UNK         0.3121 
    106 H106       28.7440   30.7052    0.7228 H         1 UNK         0.0774 
    107 H107       31.2131   30.8344    1.0671 H         1 UNK         0.0815 
    108 H108       31.1450   29.5087    2.2203 H         1 UNK         0.0815 
    109 H109       30.7749   29.2267    0.5172 H         1 UNK         0.0815 
    110 H110       29.3940   32.7848    1.5311 H         1 UNK         0.2987 
    111 H111       28.5659   33.4376    4.2579 H         1 UNK         0.0949 
    112 H112       27.9743   34.9247    2.3628 H         1 UNK         0.0806 
    113 H113       29.0195   35.7675    3.4933 H         1 UNK         0.0806 
    114 H114       29.6787   35.1649    1.9791 H         1 UNK         0.0806 
    115 H115       30.2804   31.8308    4.9478 H         1 UNK         0.3010 
    116 H116       32.0018   31.3361    6.2167 H         1 UNK         0.0829 
    117 H117       31.6005   33.4838    7.4060 H         1 UNK         0.0813 
    118 H118       33.3064   33.0693    7.3998 H         1 UNK         0.0813 
    119 H119       32.7101   34.3141    6.3150 H         1 UNK         0.0813 
    120 H120       32.7348   33.0153    3.2900 H         1 UNK         0.3038 
    121 H121       35.4622   32.9685    3.1336 H         1 UNK         0.0769 
    122 H122       33.9863   34.0658    1.4767 H         1 UNK         0.0811 
    123 H123       35.1290   33.0212    0.6498 H         1 UNK         0.0811 
    124 H124       33.4623   32.5003    0.8555 H         1 UNK         0.0811 
    125 H125       33.3979   30.1462    2.6245 H         1 UNK         0.3204 
    126 H126       35.6622   28.4566    1.7211 H         1 UNK         0.0748 
    127 H127       33.3949   28.2892    0.6050 H         1 UNK         0.0771 
    128 H128       33.9287   26.7745    1.3126 H         1 UNK         0.0771 
    129 H129       32.7140   27.7312    2.1374 H         1 UNK         0.0771 
    130 H130       34.4436   29.4819    4.7299 H         1 UNK         0.2980 
    131 H131       34.5521   26.8580    6.0453 H         1 UNK         0.0545 
    132 H132       37.2491   27.4690    8.3510 H         1 UNK         0.3459 
    133 H133       35.6628   26.7498    8.2738 H         1 UNK         0.3459 
    134 H134       33.5734   28.0372    7.9981 H         1 UNK         0.0616 
    135 H135       33.7317   29.5720    7.1909 H         1 UNK         0.0616 
    136 H136       32.3804   26.0391    7.0161 H         1 UNK         0.0634 
    137 H137       31.0621   26.7710    7.8975 H         1 UNK         0.0634 
@<TRIPOS>BOND
     1    1    2 1    
     2    1   72 1    
     3    1   73 1    
     4    1   74 1    
     5    2    3 2    
     6    2    4 am   BACKBONE|DICT|INTERRES
     7    4    5 1    
     8    4   75 1    
     9    5    6 1    
    10    5   35 1    
    11    5   76 1    
    12    6    7 1    
    13    6   77 1    
    14    6   78 1    
    15    7    8 1    
    16    8    9 1    
    17    8   79 1    
    18    8   80 1    
    19    9   10 ar   
    20    9   14 ar   
    21   10   11 ar   
    22   10   81 1    
    23   11   12 ar   
    24   11   71 1    
    25   12   13 ar   
    26   12   82 1    
    27   13   14 ar   
    28   13   15 1    
    29   14   83 1    
    30   15   16 1    
    31   15   84 1    
    32   15   85 1    
    33   16   17 1    
    34   17   18 1    
    35   17   86 1    
    36   17   87 1    
    37   18   19 1    
    38   18   37 1    
    39   18   88 1    
    40   19   20 am   BACKBONE|DICT|INTERRES
    41   19   89 1    
    42   20   21 2    
    43   20   22 1    
    44   22   23 1    
    45   22   24 1    
    46   22   90 1    
    47   23   91 1    
    48   23   92 1    
    49   23   93 1    
    50   24   25 am   BACKBONE|DICT|INTERRES
    51   24   94 1    
    52   25   26 2    
    53   25   27 1    
    54   27   28 1    
    55   27   29 1    
    56   27   95 1    
    57   28   96 1    
    58   28   97 1    
    59   28   98 1    
    60   29   30 am   BACKBONE|DICT|INTERRES
    61   29   99 1    
    62   30   31 2    
    63   30   32 1    
    64   32   33 1    
    65   32   34 1    
    66   32  100 1    
    67   33  101 1    
    68   33  102 1    
    69   33  103 1    
    70   34   35 am   BACKBONE|DICT|INTERRES
    71   34  104 1    
    72   35   36 2    
    73   37   38 2    
    74   37   39 am   BACKBONE|DICT|INTERRES
    75   39   40 1    
    76   39  105 1    
    77   40   41 1    
    78   40   42 1    
    79   40  106 1    
    80   41  107 1    
    81   41  108 1    
    82   41  109 1    
    83   42   43 2    
    84   42   44 am   BACKBONE|DICT|INTERRES
    85   44   45 1    
    86   44  110 1    
    87   45   46 1    
    88   45   47 1    
    89   45  111 1    
    90   46  112 1    
    91   46  113 1    
    92   46  114 1    
    93   47   48 2    
    94   47   49 am   BACKBONE|DICT|INTERRES
    95   49   50 1    
    96   49  115 1    
    97   50   51 1    
    98   50   52 1    
    99   50  116 1    
   100   51  117 1    
   101   51  118 1    
   102   51  119 1    
   103   52   53 2    
   104   52   54 am   BACKBONE|DICT|INTERRES
   105   54   55 1    
   106   54  120 1    
   107   55   56 1    
   108   55   57 1    
   109   55  121 1    
   110   56  122 1    
   111   56  123 1    
   112   56  124 1    
   113   57   58 2    
   114   57   59 am   BACKBONE|DICT|INTERRES
   115   59   60 1    
   116   59  125 1    
   117   60   61 1    
   118   60   62 1    
   119   60  126 1    
   120   61  127 1    
   121   61  128 1    
   122   61  129 1    
   123   62   63 2    
   124   62   64 am   BACKBONE|DICT|INTERRES
   125   64   65 1    
   126   64  130 1    
   127   65   66 1    
   128   65   69 1    
   129   65  131 1    
   130   66   67 am   BACKBONE|DICT|INTERRES
   131   66   68 2    
   132   67  132 1    
   133   67  133 1    
   134   69   70 1    
   135   69  134 1    
   136   69  135 1    
   137   70   71 1    
   138   71  136 1    
   139   71  137 1    
@<TRIPOS>SUBSTRUCTURE
     1 UNK         1 GROUP             0       ****    0 ROOT    
