@<TRIPOS>MOLECULE
3R136
137   139    1
SMALL
USER_CHARGES


@<TRIPOS>ATOM
      1 CA         28.7046   19.8481    1.0569 C.3       0 UNK        -0.1979 
      2 C          29.2717   20.6193   -0.1258 C.2       0 UNK         0.4864 
      3 O          29.2642   20.1105   -1.2474 O.2       0 UNK        -0.5359 
      4 N          29.7655   21.8402    0.1205 N.am      1 UNK        -0.4318 
      5 CA         30.3087   22.7593   -0.8870 C.3       1 UNK         0.0824 
      6 C6         31.1088   23.9228   -0.2425 C.3       12 UNK        -0.0944 
      7 S7         30.1975   24.8868    1.0194 S.3       12 UNK        -0.2672 
      8 C8         30.6969   24.0402    2.5561 C.3       12 UNK         0.0333 
      9 C9         30.3357   24.8548    3.7888 C.ar      12 UNK        -0.0807 
     10 C10        31.3434   25.3640    4.6118 C.ar      12 UNK        -0.0894 
     11 C11        31.0283   26.1362    5.7335 C.ar      12 UNK        -0.0804 
     12 C12        29.6861   26.3929    6.0307 C.ar      12 UNK        -0.0824 
     13 C13        28.6627   25.8729    5.2292 C.ar      12 UNK        -0.0762 
     14 C14        28.9973   25.0904    4.1171 C.ar      12 UNK        -0.0782 
     15 C15        27.2058   26.1580    5.5967 C.3       12 UNK         0.0230 
     16 S16        26.0980   26.4628    4.1739 S.3       12 UNK        -0.2608 
     17 C17        26.9627   27.8058    3.2923 C.3       12 UNK        -0.0989 
     18 CA         27.2099   27.4327    1.8047 C.3       5 UNK         0.0716 
     19 N          25.9773   27.3466    1.0085 N.am      5 UNK        -0.4135 
     20 C          25.1375   28.3560    0.7173 C.2       4 UNK         0.5031 
     21 O          25.2758   29.5039    1.1413 O.2       4 UNK        -0.5229 
     22 CA         23.9500   28.0740   -0.2270 C.3       4 UNK         0.0329 
     23 CB         24.0836   28.9025   -1.5172 C.3       4 UNK        -0.2001 
     24 N          23.8095   26.6662   -0.5968 N.am      4 UNK        -0.4303 
     25 C          23.2400   25.7145    0.1550 C.2       3 UNK         0.5044 
     26 O          22.6830   25.9296    1.2314 O.2       3 UNK        -0.5152 
     27 CA         23.3386   24.2701   -0.3773 C.3       3 UNK         0.0319 
     28 CB         22.0464   23.8776   -1.1116 C.3       3 UNK        -0.2001 
     29 N          24.4897   24.0461   -1.2650 N.am      3 UNK        -0.4354 
     30 C          25.7689   24.1728   -0.8880 C.2       2 UNK         0.4964 
     31 O          26.1194   24.4774    0.2559 O.2       2 UNK        -0.5047 
     32 CA         26.8327   24.0229   -1.9780 C.3       2 UNK         0.0288 
     33 CB         27.0009   25.3573   -2.7332 C.3       2 UNK        -0.2113 
     34 N          28.0670   23.6356   -1.3060 N.am      2 UNK        -0.4145 
     35 C          29.2219   23.2572   -1.8632 C.2       1 UNK         0.5006 
     36 O          29.4370   23.2491   -3.0766 O.2       1 UNK        -0.5103 
     37 C          28.2406   28.3490    1.1143 C.2       5 UNK         0.5055 
     38 O          28.6483   29.3666    1.6741 O.2       5 UNK        -0.5220 
     39 N          28.6355   27.9723   -0.1106 N.am      6 UNK        -0.4450 
     40 CA         29.5357   28.7350   -0.9847 C.3       6 UNK         0.0367 
     41 CB         29.6867   27.9958   -2.3243 C.3       6 UNK        -0.1929 
     42 C          30.9213   29.0381   -0.3836 C.2       6 UNK         0.5070 
     43 O          31.5082   30.0691   -0.7130 O.2       6 UNK        -0.5237 
     44 N          31.4154   28.1514    0.4896 N.am      7 UNK        -0.4739 
     45 CA         32.7024   28.2953    1.1719 C.3       7 UNK         0.0276 
     46 CB         33.2070   26.9040    1.5843 C.3       7 UNK        -0.1927 
     47 C          32.6677   29.2361    2.3908 C.2       7 UNK         0.5013 
     48 O          33.7408   29.5399    2.9139 O.2       7 UNK        -0.5193 
     49 N          31.4770   29.6868    2.8290 N.am      8 UNK        -0.4253 
     50 CA         31.2552   30.4558    4.0661 C.3       8 UNK         0.0242 
     51 CB         29.7679   30.8024    4.2221 C.3       8 UNK        -0.2000 
     52 C          32.1091   31.7241    4.2283 C.2       8 UNK         0.4948 
     53 O          32.4109   32.0966    5.3613 O.2       8 UNK        -0.5275 
     54 N          32.5515   32.3267    3.1168 N.am      9 UNK        -0.4246 
     55 CA         33.5206   33.4271    3.0943 C.3       9 UNK         0.0261 
     56 CB         33.7264   33.8824    1.6405 C.3       9 UNK        -0.1959 
     57 C          34.8788   33.0938    3.7508 C.2       9 UNK         0.5033 
     58 O          35.5748   34.0195    4.1711 O.2       9 UNK        -0.5390 
     59 N          35.2287   31.8017    3.8340 N.am      10 UNK        -0.4215 
     60 CA         36.4625   31.2976    4.4351 C.3       10 UNK         0.0240 
     61 CB         37.1651   30.3971    3.4023 C.3       10 UNK        -0.1982 
     62 C          36.2307   30.5293    5.7513 C.2       10 UNK         0.4970 
     63 O          37.2161   30.0486    6.3146 O.2       10 UNK        -0.4916 
     64 N          34.9819   30.3969    6.2261 N.am      11 UNK        -0.4279 
     65 CA         34.6465   29.5514    7.3897 C.3       11 UNK         0.1003 
     66 C          33.4470   30.0206    8.2595 C.2       11 UNK         0.5709 
     67 N          32.7007   31.0552    7.9005 N.am      11 UNK        -0.7358 
     68 O          33.2039   29.4468    9.3187 O.2       11 UNK        -0.4999 
     69 C69        34.5740   28.0410    7.0253 C.3       12 UNK        -0.0954 
     70 S70        33.3530   27.6570    5.7252 S.3       12 UNK        -0.2268 
     71 C71        32.1365   26.6607    6.6399 C.3       12 UNK         0.0203 
     72 H72        29.2443   18.9104    1.1866 H         1 UNK         0.0888 
     73 H73        28.7778   20.4125    1.9864 H         1 UNK         0.0888 
     74 H74        27.6541   19.6157    0.8839 H         1 UNK         0.0888 
     75 H75        29.7398   22.2019    1.0615 H         1 UNK         0.3017 
     76 H76        31.0153   22.1838   -1.4895 H         1 UNK         0.0873 
     77 H77        32.0210   23.5279    0.2071 H         1 UNK         0.0745 
     78 H78        31.4527   24.6161   -1.0128 H         1 UNK         0.0745 
     79 H79        30.2115   23.0666    2.6203 H         1 UNK         0.0705 
     80 H80        31.7712   23.8506    2.5305 H         1 UNK         0.0705 
     81 H81        32.3810   25.1651    4.3805 H         1 UNK         0.1334 
     82 H82        29.4367   26.9882    6.8986 H         1 UNK         0.1417 
     83 H83        28.2170   24.6776    3.4924 H         1 UNK         0.1562 
     84 H84        27.1460   27.0236    6.2585 H         1 UNK         0.0748 
     85 H85        26.8187   25.3106    6.1637 H         1 UNK         0.0748 
     86 H86        27.9094   28.0027    3.7955 H         1 UNK         0.0940 
     87 H87        26.3855   28.7266    3.3842 H         1 UNK         0.0940 
     88 H88        27.6502   26.4349    1.7860 H         1 UNK         0.0703 
     89 H89        25.7703   26.4204    0.6510 H         1 UNK         0.3081 
     90 H90        23.0427   28.3923    0.2908 H         1 UNK         0.0719 
     91 H91        24.9849   28.6422   -2.0738 H         1 UNK         0.0809 
     92 H92        23.2267   28.7549   -2.1750 H         1 UNK         0.0809 
     93 H93        24.1358   29.9694   -1.2950 H         1 UNK         0.0809 
     94 H94        24.2191   26.3885   -1.4763 H         1 UNK         0.2990 
     95 H95        23.4540   23.6136    0.4879 H         1 UNK         0.0690 
     96 H96        22.0650   22.8313   -1.4173 H         1 UNK         0.0788 
     97 H97        21.8862   24.4864   -2.0024 H         1 UNK         0.0788 
     98 H98        21.1761   24.0087   -0.4667 H         1 UNK         0.0788 
     99 H99        24.2818   23.8055   -2.2243 H         1 UNK         0.2993 
    100 H100       26.5422   23.2279   -2.6679 H         1 UNK         0.0949 
    101 H101       26.0823   25.6310   -3.2535 H         1 UNK         0.0767 
    102 H102       27.2454   26.1737   -2.0548 H         1 UNK         0.0767 
    103 H103       27.7857   25.3029   -3.4874 H         1 UNK         0.0767 
    104 H104       27.9856   23.6245   -0.2959 H         1 UNK         0.3013 
    105 H105       28.2724   27.1082   -0.4833 H         1 UNK         0.3121 
    106 H106       29.0576   29.6975   -1.1785 H         1 UNK         0.0774 
    107 H107       30.0664   26.9822   -2.1872 H         1 UNK         0.0815 
    108 H108       30.3824   28.5175   -2.9833 H         1 UNK         0.0815 
    109 H109       28.7360   27.9339   -2.8534 H         1 UNK         0.0815 
    110 H110       30.8722   27.3258    0.7055 H         1 UNK         0.2987 
    111 H111       33.4245   28.7164    0.4687 H         1 UNK         0.0949 
    112 H112       32.5388   26.4395    2.3071 H         1 UNK         0.0806 
    113 H113       33.2915   26.2377    0.7257 H         1 UNK         0.0806 
    114 H114       34.1930   26.9646    2.0474 H         1 UNK         0.0806 
    115 H115       30.6427   29.4252    2.3139 H         1 UNK         0.3010 
    116 H116       31.5245   29.7968    4.8927 H         1 UNK         0.0829 
    117 H117       29.1603   29.9027    4.3027 H         1 UNK         0.0813 
    118 H118       29.5917   31.3861    5.1269 H         1 UNK         0.0813 
    119 H119       29.3988   31.3867    3.3784 H         1 UNK         0.0813 
    120 H120       32.2685   31.9458    2.2251 H         1 UNK         0.3038 
    121 H121       33.0864   34.2563    3.6566 H         1 UNK         0.0769 
    122 H122       34.1340   33.0820    1.0214 H         1 UNK         0.0811 
    123 H123       34.4223   34.7211    1.5885 H         1 UNK         0.0811 
    124 H124       32.7902   34.2132    1.1904 H         1 UNK         0.0811 
    125 H125       34.6009   31.0900    3.4600 H         1 UNK         0.3204 
    126 H126       37.1350   32.1245    4.6714 H         1 UNK         0.0748 
    127 H127       38.1231   30.0357    3.7784 H         1 UNK         0.0771 
    128 H128       36.5604   29.5235    3.1542 H         1 UNK         0.0771 
    129 H129       37.3665   30.9381    2.4776 H         1 UNK         0.0771 
    130 H130       34.2081   30.8372    5.7476 H         1 UNK         0.2980 
    131 H131       35.4780   29.6512    8.0901 H         1 UNK         0.0545 
    132 H132       31.9495   31.3330    8.5108 H         1 UNK         0.3459 
    133 H133       32.7992   31.5210    7.0021 H         1 UNK         0.3459 
    134 H134       35.5474   27.7082    6.6625 H         1 UNK         0.0616 
    135 H135       34.3775   27.4354    7.9117 H         1 UNK         0.0616 
    136 H136       32.6418   25.8131    7.1045 H         1 UNK         0.0634 
    137 H137       31.7251   27.2657    7.4495 H         1 UNK         0.0634 
@<TRIPOS>BOND
     1    1    2 1    
     2    1   72 1    
     3    1   73 1    
     4    1   74 1    
     5    2    3 2    
     6    2    4 am   BACKBONE|DICT|INTERRES
     7    4    5 1    
     8    4   75 1    
     9    5    6 1    
    10    5   35 1    
    11    5   76 1    
    12    6    7 1    
    13    6   77 1    
    14    6   78 1    
    15    7    8 1    
    16    8    9 1    
    17    8   79 1    
    18    8   80 1    
    19    9   10 ar   
    20    9   14 ar   
    21   10   11 ar   
    22   10   81 1    
    23   11   12 ar   
    24   11   71 1    
    25   12   13 ar   
    26   12   82 1    
    27   13   14 ar   
    28   13   15 1    
    29   14   83 1    
    30   15   16 1    
    31   15   84 1    
    32   15   85 1    
    33   16   17 1    
    34   17   18 1    
    35   17   86 1    
    36   17   87 1    
    37   18   19 1    
    38   18   37 1    
    39   18   88 1    
    40   19   20 am   BACKBONE|DICT|INTERRES
    41   19   89 1    
    42   20   21 2    
    43   20   22 1    
    44   22   23 1    
    45   22   24 1    
    46   22   90 1    
    47   23   91 1    
    48   23   92 1    
    49   23   93 1    
    50   24   25 am   BACKBONE|DICT|INTERRES
    51   24   94 1    
    52   25   26 2    
    53   25   27 1    
    54   27   28 1    
    55   27   29 1    
    56   27   95 1    
    57   28   96 1    
    58   28   97 1    
    59   28   98 1    
    60   29   30 am   BACKBONE|DICT|INTERRES
    61   29   99 1    
    62   30   31 2    
    63   30   32 1    
    64   32   33 1    
    65   32   34 1    
    66   32  100 1    
    67   33  101 1    
    68   33  102 1    
    69   33  103 1    
    70   34   35 am   BACKBONE|DICT|INTERRES
    71   34  104 1    
    72   35   36 2    
    73   37   38 2    
    74   37   39 am   BACKBONE|DICT|INTERRES
    75   39   40 1    
    76   39  105 1    
    77   40   41 1    
    78   40   42 1    
    79   40  106 1    
    80   41  107 1    
    81   41  108 1    
    82   41  109 1    
    83   42   43 2    
    84   42   44 am   BACKBONE|DICT|INTERRES
    85   44   45 1    
    86   44  110 1    
    87   45   46 1    
    88   45   47 1    
    89   45  111 1    
    90   46  112 1    
    91   46  113 1    
    92   46  114 1    
    93   47   48 2    
    94   47   49 am   BACKBONE|DICT|INTERRES
    95   49   50 1    
    96   49  115 1    
    97   50   51 1    
    98   50   52 1    
    99   50  116 1    
   100   51  117 1    
   101   51  118 1    
   102   51  119 1    
   103   52   53 2    
   104   52   54 am   BACKBONE|DICT|INTERRES
   105   54   55 1    
   106   54  120 1    
   107   55   56 1    
   108   55   57 1    
   109   55  121 1    
   110   56  122 1    
   111   56  123 1    
   112   56  124 1    
   113   57   58 2    
   114   57   59 am   BACKBONE|DICT|INTERRES
   115   59   60 1    
   116   59  125 1    
   117   60   61 1    
   118   60   62 1    
   119   60  126 1    
   120   61  127 1    
   121   61  128 1    
   122   61  129 1    
   123   62   63 2    
   124   62   64 am   BACKBONE|DICT|INTERRES
   125   64   65 1    
   126   64  130 1    
   127   65   66 1    
   128   65   69 1    
   129   65  131 1    
   130   66   67 am   BACKBONE|DICT|INTERRES
   131   66   68 2    
   132   67  132 1    
   133   67  133 1    
   134   69   70 1    
   135   69  134 1    
   136   69  135 1    
   137   70   71 1    
   138   71  136 1    
   139   71  137 1    
@<TRIPOS>SUBSTRUCTURE
     1 UNK         1 GROUP             0       ****    0 ROOT    
