@<TRIPOS>MOLECULE
3R136
137   139    1
SMALL
USER_CHARGES


@<TRIPOS>ATOM
      1 CA         30.3743   20.2838   -1.2244 C.3       0 UNK        -0.1979 
      2 C          30.4617   21.7265   -1.6984 C.2       0 UNK         0.4864 
      3 O          30.4822   21.9780   -2.9044 O.2       0 UNK        -0.5359 
      4 N          30.4919   22.6834   -0.7617 N.am      1 UNK        -0.4318 
      5 CA         30.6177   24.1271   -1.0046 C.3       1 UNK         0.0824 
      6 C6         31.1990   24.8639    0.2284 C.3       12 UNK        -0.0944 
      7 S7         32.8856   24.3469    0.6889 S.3       12 UNK        -0.2672 
      8 C8         32.6031   23.0666    1.9543 C.3       12 UNK         0.0333 
      9 C9         31.9329   23.5908    3.2188 C.ar      12 UNK        -0.0807 
     10 C10        32.6773   24.2960    4.1708 C.ar      12 UNK        -0.0894 
     11 C11        32.0949   24.6807    5.3831 C.ar      12 UNK        -0.0804 
     12 C12        30.7504   24.3833    5.6263 C.ar      12 UNK        -0.0824 
     13 C13        29.9918   23.6916    4.6781 C.ar      12 UNK        -0.0762 
     14 C14        30.5886   23.2982    3.4766 C.ar      12 UNK        -0.0782 
     15 C15        28.5476   23.3109    4.9771 C.3       12 UNK         0.0230 
     16 S16        27.3533   24.3582    4.0897 S.3       12 UNK        -0.2608 
     17 C17        27.5338   25.9589    4.9527 C.3       12 UNK        -0.0989 
     18 CA         28.3265   26.9858    4.1041 C.3       5 UNK         0.0716 
     19 N          27.7485   27.2098    2.7692 N.am      5 UNK        -0.4135 
     20 C          26.5540   27.7312    2.4528 C.2       4 UNK         0.5031 
     21 O          25.7632   28.2131    3.2652 O.2       4 UNK        -0.5229 
     22 CA         26.1684   27.6717    0.9691 C.3       4 UNK         0.0329 
     23 CB         27.0918   28.5480    0.1053 C.3       4 UNK        -0.2001 
     24 N          26.1856   26.2927    0.4795 N.am      4 UNK        -0.4303 
     25 C          25.2240   25.3881    0.7289 C.2       3 UNK         0.5044 
     26 O          24.2150   25.6393    1.3903 O.2       3 UNK        -0.5152 
     27 CA         25.4083   23.9669    0.1465 C.3       3 UNK         0.0319 
     28 CB         24.0661   23.2708   -0.1650 C.3       3 UNK        -0.2001 
     29 N          26.3062   23.9152   -1.0141 N.am      3 UNK        -0.4354 
     30 C          26.1695   24.5538   -2.1879 C.2       2 UNK         0.4964 
     31 O          25.1512   25.1622   -2.5200 O.2       2 UNK        -0.5047 
     32 CA         27.3899   24.5447   -3.1373 C.3       2 UNK         0.0288 
     33 CB         27.5472   25.8917   -3.8748 C.3       2 UNK        -0.2113 
     34 N          28.6671   24.1715   -2.5048 N.am      2 UNK        -0.4145 
     35 C          29.2717   24.7459   -1.4525 C.2       1 UNK         0.5006 
     36 O          28.7784   25.6810   -0.8153 O.2       1 UNK        -0.5103 
     37 C          28.6079   28.2835    4.8941 C.2       5 UNK         0.5055 
     38 O          29.7563   28.5378    5.2546 O.2       5 UNK        -0.5220 
     39 N          27.5679   29.0876    5.1428 N.am      6 UNK        -0.4450 
     40 CA         27.6283   30.3491    5.8856 C.3       6 UNK         0.0367 
     41 CB         26.2038   30.7577    6.2935 C.3       6 UNK        -0.1929 
     42 C          28.3140   31.4892    5.1118 C.2       6 UNK         0.5070 
     43 O          28.7753   32.4447    5.7372 O.2       6 UNK        -0.5237 
     44 N          28.3649   31.3815    3.7771 N.am      7 UNK        -0.4739 
     45 CA         29.0804   32.3050    2.8971 C.3       7 UNK         0.0276 
     46 CB         28.6677   32.0342    1.4414 C.3       7 UNK        -0.1927 
     47 C          30.5980   32.1349    3.0533 C.2       7 UNK         0.5013 
     48 O          31.0720   30.9981    3.1054 O.2       7 UNK        -0.5193 
     49 N          31.3379   33.2522    3.0594 N.am      8 UNK        -0.4253 
     50 CA         32.7970   33.3003    3.2356 C.3       8 UNK         0.0242 
     51 CB         33.2554   34.7672    3.2692 C.3       8 UNK        -0.2000 
     52 C          33.6024   32.5099    2.1863 C.2       8 UNK         0.4948 
     53 O          34.7132   32.0721    2.4860 O.2       8 UNK        -0.5275 
     54 N          33.0210   32.3173    0.9931 N.am      9 UNK        -0.4246 
     55 CA         33.5476   31.4597   -0.0712 C.3       9 UNK         0.0261 
     56 CB         32.7469   31.7083   -1.3600 C.3       9 UNK        -0.1959 
     57 C          33.5380   29.9601    0.2866 C.2       9 UNK         0.5033 
     58 O          34.3540   29.2157   -0.2585 O.2       9 UNK        -0.5390 
     59 N          32.6312   29.5464    1.1831 N.am      10 UNK        -0.4215 
     60 CA         32.5784   28.2049    1.7564 C.3       10 UNK         0.0240 
     61 CB         31.1150   27.8098    2.0111 C.3       10 UNK        -0.1982 
     62 C          33.4118   28.1837    3.0436 C.2       10 UNK         0.4970 
     63 O          34.4504   27.5233    3.0772 O.2       10 UNK        -0.4916 
     64 N          32.9710   28.9550    4.0443 N.am      11 UNK        -0.4279 
     65 CA         33.6872   29.2316    5.2954 C.3       11 UNK         0.1003 
     66 C          33.0301   30.3806    6.1039 C.2       11 UNK         0.5709 
     67 N          31.7082   30.4950    6.1299 N.am      11 UNK        -0.7358 
     68 O          33.7328   31.1949    6.6977 O.2       11 UNK        -0.4999 
     69 C69        33.9691   27.9806    6.1773 C.3       12 UNK        -0.0954 
     70 S70        32.4720   27.0858    6.7229 S.3       12 UNK        -0.2268 
     71 C71        32.9297   25.3433    6.4695 C.3       12 UNK         0.0203 
     72 H72        30.3606   20.2108   -0.1370 H         1 UNK         0.0888 
     73 H73        29.4673   19.8171   -1.6076 H         1 UNK         0.0888 
     74 H74        31.2300   19.7175   -1.5909 H         1 UNK         0.0888 
     75 H75        30.4375   22.4153    0.2087 H         1 UNK         0.3017 
     76 H76        31.3142   24.2753   -1.8330 H         1 UNK         0.0873 
     77 H77        31.2730   25.9265   -0.0018 H         1 UNK         0.0745 
     78 H78        30.5322   24.7837    1.0876 H         1 UNK         0.0745 
     79 H79        33.5689   22.6353    2.2217 H         1 UNK         0.0705 
     80 H80        32.0278   22.2472    1.5235 H         1 UNK         0.0705 
     81 H81        33.7204   24.5114    3.9814 H         1 UNK         0.1334 
     82 H82        30.3047   24.6708    6.5688 H         1 UNK         0.1417 
     83 H83        30.0075   22.7397    2.7561 H         1 UNK         0.1562 
     84 H84        28.3459   23.3555    6.0486 H         1 UNK         0.0748 
     85 H85        28.3834   22.2727    4.6851 H         1 UNK         0.0748 
     86 H86        28.0206   25.7982    5.9164 H         1 UNK         0.0940 
     87 H87        26.5347   26.3341    5.1808 H         1 UNK         0.0940 
     88 H88        29.3040   26.5390    3.9207 H         1 UNK         0.0703 
     89 H89        28.2990   26.8421    2.0073 H         1 UNK         0.3081 
     90 H90        25.1530   28.0621    0.8701 H         1 UNK         0.0719 
     91 H91        27.0599   29.5866    0.4353 H         1 UNK         0.0809 
     92 H92        28.1314   28.2212    0.1437 H         1 UNK         0.0809 
     93 H93        26.7812   28.5330   -0.9397 H         1 UNK         0.0809 
     94 H94        26.9984   26.0097   -0.0612 H         1 UNK         0.2990 
     95 H95        25.9009   23.3912    0.9315 H         1 UNK         0.0690 
     96 H96        23.4760   23.8337   -0.8887 H         1 UNK         0.0788 
     97 H97        23.4602   23.1667    0.7359 H         1 UNK         0.0788 
     98 H98        24.2219   22.2690   -0.5651 H         1 UNK         0.0788 
     99 H99        27.1855   23.4450   -0.8550 H         1 UNK         0.2993 
    100 H100       27.1820   23.7766   -3.8838 H         1 UNK         0.0949 
    101 H101       27.6981   26.7170   -3.1776 H         1 UNK         0.0767 
    102 H102       28.3949   25.8722   -4.5597 H         1 UNK         0.0767 
    103 H103       26.6616   26.1240   -4.4677 H         1 UNK         0.0767 
    104 H104       29.1535   23.3795   -2.9202 H         1 UNK         0.3013 
    105 H105       26.6766   28.8348    4.7188 H         1 UNK         0.3121 
    106 H106       28.2101   30.1791    6.7942 H         1 UNK         0.0774 
    107 H107       26.2126   31.6831    6.8712 H         1 UNK         0.0815 
    108 H108       25.5671   30.9218    5.4231 H         1 UNK         0.0815 
    109 H109       25.7344   29.9944    6.9143 H         1 UNK         0.0815 
    110 H110       27.9912   30.5451    3.3559 H         1 UNK         0.2987 
    111 H111       28.7989   33.3262    3.1637 H         1 UNK         0.0949 
    112 H112       29.1406   32.7447    0.7623 H         1 UNK         0.0806 
    113 H113       28.9595   31.0336    1.1190 H         1 UNK         0.0806 
    114 H114       27.5900   32.1305    1.3085 H         1 UNK         0.0806 
    115 H115       30.8670   34.1434    2.9926 H         1 UNK         0.3010 
    116 H116       33.0174   32.8525    4.2069 H         1 UNK         0.0829 
    117 H117       32.7773   35.3149    4.0816 H         1 UNK         0.0813 
    118 H118       34.3328   34.8361    3.4268 H         1 UNK         0.0813 
    119 H119       33.0292   35.2829    2.3351 H         1 UNK         0.0813 
    120 H120       32.1167   32.7365    0.8344 H         1 UNK         0.3038 
    121 H121       34.5859   31.7470   -0.2508 H         1 UNK         0.0769 
    122 H122       32.8081   32.7511   -1.6718 H         1 UNK         0.0811 
    123 H123       33.1340   31.1036   -2.1815 H         1 UNK         0.0811 
    124 H124       31.6932   31.4537   -1.2373 H         1 UNK         0.0811 
    125 H125       32.0437   30.2383    1.6402 H         1 UNK         0.3204 
    126 H126       33.0073   27.4820    1.0591 H         1 UNK         0.0748 
    127 H127       30.5382   27.8090    1.0868 H         1 UNK         0.0771 
    128 H128       31.0643   26.8087    2.4400 H         1 UNK         0.0771 
    129 H129       30.6171   28.4892    2.6999 H         1 UNK         0.0771 
    130 H130       32.1313   29.5106    3.9041 H         1 UNK         0.2980 
    131 H131       34.6594   29.6213    4.9874 H         1 UNK         0.0545 
    132 H132       31.1118   29.7836    5.7141 H         1 UNK         0.3459 
    133 H133       31.2914   31.2584    6.6363 H         1 UNK         0.3459 
    134 H134       34.6268   27.2984    5.6401 H         1 UNK         0.0616 
    135 H135       34.5292   28.2693    7.0683 H         1 UNK         0.0616 
    136 H136       32.7711   24.8102    7.4079 H         1 UNK         0.0634 
    137 H137       33.9942   25.2467    6.2537 H         1 UNK         0.0634 
@<TRIPOS>BOND
     1    1    2 1    
     2    1   72 1    
     3    1   73 1    
     4    1   74 1    
     5    2    3 2    
     6    2    4 am   BACKBONE|DICT|INTERRES
     7    4    5 1    
     8    4   75 1    
     9    5    6 1    
    10    5   35 1    
    11    5   76 1    
    12    6    7 1    
    13    6   77 1    
    14    6   78 1    
    15    7    8 1    
    16    8    9 1    
    17    8   79 1    
    18    8   80 1    
    19    9   10 ar   
    20    9   14 ar   
    21   10   11 ar   
    22   10   81 1    
    23   11   12 ar   
    24   11   71 1    
    25   12   13 ar   
    26   12   82 1    
    27   13   14 ar   
    28   13   15 1    
    29   14   83 1    
    30   15   16 1    
    31   15   84 1    
    32   15   85 1    
    33   16   17 1    
    34   17   18 1    
    35   17   86 1    
    36   17   87 1    
    37   18   19 1    
    38   18   37 1    
    39   18   88 1    
    40   19   20 am   BACKBONE|DICT|INTERRES
    41   19   89 1    
    42   20   21 2    
    43   20   22 1    
    44   22   23 1    
    45   22   24 1    
    46   22   90 1    
    47   23   91 1    
    48   23   92 1    
    49   23   93 1    
    50   24   25 am   BACKBONE|DICT|INTERRES
    51   24   94 1    
    52   25   26 2    
    53   25   27 1    
    54   27   28 1    
    55   27   29 1    
    56   27   95 1    
    57   28   96 1    
    58   28   97 1    
    59   28   98 1    
    60   29   30 am   BACKBONE|DICT|INTERRES
    61   29   99 1    
    62   30   31 2    
    63   30   32 1    
    64   32   33 1    
    65   32   34 1    
    66   32  100 1    
    67   33  101 1    
    68   33  102 1    
    69   33  103 1    
    70   34   35 am   BACKBONE|DICT|INTERRES
    71   34  104 1    
    72   35   36 2    
    73   37   38 2    
    74   37   39 am   BACKBONE|DICT|INTERRES
    75   39   40 1    
    76   39  105 1    
    77   40   41 1    
    78   40   42 1    
    79   40  106 1    
    80   41  107 1    
    81   41  108 1    
    82   41  109 1    
    83   42   43 2    
    84   42   44 am   BACKBONE|DICT|INTERRES
    85   44   45 1    
    86   44  110 1    
    87   45   46 1    
    88   45   47 1    
    89   45  111 1    
    90   46  112 1    
    91   46  113 1    
    92   46  114 1    
    93   47   48 2    
    94   47   49 am   BACKBONE|DICT|INTERRES
    95   49   50 1    
    96   49  115 1    
    97   50   51 1    
    98   50   52 1    
    99   50  116 1    
   100   51  117 1    
   101   51  118 1    
   102   51  119 1    
   103   52   53 2    
   104   52   54 am   BACKBONE|DICT|INTERRES
   105   54   55 1    
   106   54  120 1    
   107   55   56 1    
   108   55   57 1    
   109   55  121 1    
   110   56  122 1    
   111   56  123 1    
   112   56  124 1    
   113   57   58 2    
   114   57   59 am   BACKBONE|DICT|INTERRES
   115   59   60 1    
   116   59  125 1    
   117   60   61 1    
   118   60   62 1    
   119   60  126 1    
   120   61  127 1    
   121   61  128 1    
   122   61  129 1    
   123   62   63 2    
   124   62   64 am   BACKBONE|DICT|INTERRES
   125   64   65 1    
   126   64  130 1    
   127   65   66 1    
   128   65   69 1    
   129   65  131 1    
   130   66   67 am   BACKBONE|DICT|INTERRES
   131   66   68 2    
   132   67  132 1    
   133   67  133 1    
   134   69   70 1    
   135   69  134 1    
   136   69  135 1    
   137   70   71 1    
   138   71  136 1    
   139   71  137 1    
@<TRIPOS>SUBSTRUCTURE
     1 UNK         1 GROUP             0       ****    0 ROOT    
