@<TRIPOS>MOLECULE
3R136
137   139    1
SMALL
USER_CHARGES


@<TRIPOS>ATOM
      1 CA         26.3408   27.8224    5.7446 C.3       0 UNK        -0.1979 
      2 C          26.1571   26.7453    4.6881 C.2       0 UNK         0.4864 
      3 O          25.1472   26.0395    4.6981 O.2       0 UNK        -0.5359 
      4 N          27.1097   26.6243    3.7557 N.am      1 UNK        -0.4318 
      5 CA         27.1232   25.6359    2.6706 C.3       1 UNK         0.0824 
      6 C6         28.5721   25.3004    2.2316 C.3       12 UNK        -0.0944 
      7 S7         29.4838   24.3865    3.5221 S.3       12 UNK        -0.2672 
      8 C8         30.6432   25.6505    4.1546 C.3       12 UNK         0.0333 
      9 C9         31.7293   26.1194    3.1821 C.ar      12 UNK        -0.0807 
     10 C10        32.4695   27.2558    3.5204 C.ar      12 UNK        -0.0894 
     11 C11        33.4614   27.7527    2.6700 C.ar      12 UNK        -0.0804 
     12 C12        33.6919   27.1146    1.4468 C.ar      12 UNK        -0.0824 
     13 C13        32.9737   25.9689    1.0941 C.ar      12 UNK        -0.0762 
     14 C14        32.0141   25.4627    1.9775 C.ar      12 UNK        -0.0782 
     15 C15        33.2425   25.2887   -0.2455 C.3       12 UNK         0.0230 
     16 S16        31.7252   24.8921   -1.1797 S.3       12 UNK        -0.2608 
     17 C17        30.8705   26.5060   -1.1991 C.3       12 UNK        -0.0989 
     18 CA         29.6578   26.5393   -2.1627 C.3       5 UNK         0.0716 
     19 N          28.7523   25.4085   -1.9306 N.am      5 UNK        -0.4135 
     20 C          27.7239   25.0418   -2.7050 C.2       4 UNK         0.5031 
     21 O          27.3286   25.6854   -3.6777 O.2       4 UNK        -0.5229 
     22 CA         27.0345   23.7157   -2.3558 C.3       4 UNK         0.0329 
     23 CB         27.8936   22.7588   -1.5010 C.3       4 UNK        -0.2001 
     24 N          25.7804   23.9881   -1.6601 N.am      4 UNK        -0.4303 
     25 C          24.6085   23.3976   -1.9325 C.2       3 UNK         0.5044 
     26 O          24.4517   22.5895   -2.8494 O.2       3 UNK        -0.5152 
     27 CA         23.4047   23.7180   -1.0230 C.3       3 UNK         0.0319 
     28 CB         22.9497   22.4570   -0.2677 C.3       3 UNK        -0.2001 
     29 N          23.6688   24.7739   -0.0438 N.am      3 UNK        -0.4354 
     30 C          23.6245   26.0873   -0.3010 C.2       2 UNK         0.4964 
     31 O          23.3232   26.5637   -1.3951 O.2       2 UNK        -0.5047 
     32 CA         23.9973   27.0291    0.8569 C.3       2 UNK         0.0288 
     33 CB         22.7407   27.4430    1.6392 C.3       2 UNK        -0.2113 
     34 N          24.9854   26.4789    1.7932 N.am      2 UNK        -0.4145 
     35 C          26.2356   26.0982    1.4931 C.2       1 UNK         0.5006 
     36 O          26.6853   26.1090    0.3449 O.2       1 UNK        -0.5103 
     37 C          28.9763   27.9220   -2.0863 C.2       5 UNK         0.5055 
     38 O          29.4969   28.8690   -2.6779 O.2       5 UNK        -0.5220 
     39 N          27.8594   28.0194   -1.3473 N.am      6 UNK        -0.4450 
     40 CA         27.1097   29.2395   -1.0273 C.3       6 UNK         0.0367 
     41 CB         26.4753   29.8582   -2.2908 C.3       6 UNK        -0.1929 
     42 C          27.9513   30.2350   -0.2073 C.2       6 UNK         0.5070 
     43 O          27.9734   31.4298   -0.5081 O.2       6 UNK        -0.5237 
     44 N          28.6367   29.7105    0.8149 N.am      7 UNK        -0.4739 
     45 CA         29.4990   30.4521    1.7286 C.3       7 UNK         0.0276 
     46 CB         30.9632   30.2592    1.3012 C.3       7 UNK        -0.1927 
     47 C          29.2768   29.9397    3.1557 C.2       7 UNK         0.5013 
     48 O          28.9030   28.7770    3.3360 O.2       7 UNK        -0.5193 
     49 N          29.5269   30.8136    4.1372 N.am      8 UNK        -0.4253 
     50 CA         29.3811   30.5354    5.5697 C.3       8 UNK         0.0242 
     51 CB         28.0736   31.1709    6.0807 C.3       8 UNK        -0.2000 
     52 C          30.6084   30.9933    6.3790 C.2       8 UNK         0.4948 
     53 O          30.5060   31.1551    7.5966 O.2       8 UNK        -0.5275 
     54 N          31.7474   31.1898    5.7008 N.am      9 UNK        -0.4246 
     55 CA         33.0508   31.4487    6.3172 C.3       9 UNK         0.0261 
     56 CB         33.9449   32.1779    5.2967 C.3       9 UNK        -0.1959 
     57 C          33.6982   30.1372    6.8027 C.2       9 UNK         0.5033 
     58 O          33.1615   29.0540    6.5563 O.2       9 UNK        -0.5390 
     59 N          34.8510   30.2506    7.4743 N.am      10 UNK        -0.4215 
     60 CA         35.6214   29.1058    7.9684 C.3       10 UNK         0.0240 
     61 CB         36.7013   29.5901    8.9510 C.3       10 UNK        -0.1982 
     62 C          36.2449   28.2624    6.8412 C.2       10 UNK         0.4970 
     63 O          36.1370   27.0365    6.8824 O.2       10 UNK        -0.4916 
     64 N          36.8948   28.9333    5.8764 N.am      11 UNK        -0.4279 
     65 CA         37.6406   28.3287    4.7532 C.3       11 UNK         0.1003 
     66 C          38.8098   27.3805    5.1758 C.2       11 UNK         0.5709 
     67 N          39.3722   27.5264    6.3703 N.am      11 UNK        -0.7358 
     68 O          39.2462   26.5275    4.4061 O.2       11 UNK        -0.4999 
     69 C69        36.6985   27.7246    3.6668 C.3       12 UNK        -0.0954 
     70 S70        35.9866   29.0201    2.5986 S.3       12 UNK        -0.2268 
     71 C71        34.2297   29.0069    3.0766 C.3       12 UNK         0.0203 
     72 H72        27.3553   28.2160    5.7380 H         1 UNK         0.0888 
     73 H73        25.6499   28.6460    5.5675 H         1 UNK         0.0888 
     74 H74        26.1444   27.4158    6.7362 H         1 UNK         0.0888 
     75 H75        27.8682   27.3048    3.7308 H         1 UNK         0.3017 
     76 H76        26.6712   24.7112    3.0363 H         1 UNK         0.0873 
     77 H77        28.5734   24.6625    1.3468 H         1 UNK         0.0745 
     78 H78        29.1127   26.2070    1.9535 H         1 UNK         0.0745 
     79 H79        30.0618   26.5109    4.4893 H         1 UNK         0.0705 
     80 H80        31.1320   25.2466    5.0419 H         1 UNK         0.0705 
     81 H81        32.2652   27.7620    4.4544 H         1 UNK         0.1334 
     82 H82        34.4350   27.5094    0.7679 H         1 UNK         0.1417 
     83 H83        31.4735   24.5698    1.6995 H         1 UNK         0.1562 
     84 H84        33.7978   24.3671   -0.0673 H         1 UNK         0.0748 
     85 H85        33.8775   25.9145   -0.8747 H         1 UNK         0.0748 
     86 H86        31.5949   27.2757   -1.4742 H         1 UNK         0.0940 
     87 H87        30.5524   26.7379   -0.1805 H         1 UNK         0.0940 
     88 H88        30.0363   26.4327   -3.1815 H         1 UNK         0.0703 
     89 H89        29.0059   24.8042   -1.1637 H         1 UNK         0.3081 
     90 H90        26.8399   23.2229   -3.3108 H         1 UNK         0.0719 
     91 H91        28.0506   23.1343   -0.4896 H         1 UNK         0.0809 
     92 H92        27.4131   21.7842   -1.4131 H         1 UNK         0.0809 
     93 H93        28.8717   22.5899   -1.9544 H         1 UNK         0.0809 
     94 H94        25.8228   24.6922   -0.9317 H         1 UNK         0.2990 
     95 H95        22.5865   24.0372   -1.6723 H         1 UNK         0.0690 
     96 H96        22.0651   22.6543    0.3382 H         1 UNK         0.0788 
     97 H97        23.7315   22.0764    0.3909 H         1 UNK         0.0788 
     98 H98        22.6903   21.6559   -0.9614 H         1 UNK         0.0788 
     99 H99        23.9200   24.4770    0.8880 H         1 UNK         0.2993 
    100 H100       24.4264   27.9272    0.4126 H         1 UNK         0.0949 
    101 H101       21.9922   27.8788    0.9756 H         1 UNK         0.0767 
    102 H102       22.2779   26.5914    2.1396 H         1 UNK         0.0767 
    103 H103       22.9740   28.1913    2.3971 H         1 UNK         0.0767 
    104 H104       24.7110   26.4164    2.7693 H         1 UNK         0.3013 
    105 H105       27.5208   27.1781   -0.8832 H         1 UNK         0.3121 
    106 H106       26.2954   28.9324   -0.3731 H         1 UNK         0.0774 
    107 H107       25.8187   30.6887   -2.0295 H         1 UNK         0.0815 
    108 H108       27.2283   30.2450   -2.9777 H         1 UNK         0.0815 
    109 H109       25.8735   29.1259   -2.8291 H         1 UNK         0.0815 
    110 H110       28.5178   28.7334    1.0457 H         1 UNK         0.2987 
    111 H111       29.2481   31.5150    1.7003 H         1 UNK         0.0949 
    112 H112       31.2614   29.2110    1.3506 H         1 UNK         0.0806 
    113 H113       31.1250   30.6021    0.2790 H         1 UNK         0.0806 
    114 H114       31.6373   30.8270    1.9424 H         1 UNK         0.0806 
    115 H115       29.8162   31.7522    3.8963 H         1 UNK         0.3010 
    116 H116       29.3252   29.4572    5.7294 H         1 UNK         0.0829 
    117 H117       27.2139   30.8285    5.5049 H         1 UNK         0.0813 
    118 H118       27.8881   30.9081    7.1229 H         1 UNK         0.0813 
    119 H119       28.1056   32.2591    6.0176 H         1 UNK         0.0813 
    120 H120       31.7545   30.9654    4.7180 H         1 UNK         0.3038 
    121 H121       32.9131   32.0981    7.1845 H         1 UNK         0.0769 
    122 H122       33.4756   33.0992    4.9509 H         1 UNK         0.0811 
    123 H123       34.1545   31.5647    4.4212 H         1 UNK         0.0811 
    124 H124       34.9040   32.4576    5.7335 H         1 UNK         0.0811 
    125 H125       35.2277   31.1706    7.6533 H         1 UNK         0.3204 
    126 H126       34.9371   28.4572    8.5203 H         1 UNK         0.0748 
    127 H127       36.2570   30.0966    9.8082 H         1 UNK         0.0771 
    128 H128       37.2798   28.7505    9.3394 H         1 UNK         0.0771 
    129 H129       37.4028   30.2806    8.4810 H         1 UNK         0.0771 
    130 H130       36.9363   29.9397    5.9337 H         1 UNK         0.2980 
    131 H131       38.1718   29.1603    4.2890 H         1 UNK         0.0545 
    132 H132       40.1341   26.9208    6.6320 H         1 UNK         0.3459 
    133 H133       39.0454   28.2322    7.0095 H         1 UNK         0.3459 
    134 H134       35.9095   27.1204    4.1168 H         1 UNK         0.0616 
    135 H135       37.2353   27.0546    2.9941 H         1 UNK         0.0616 
    136 H136       34.1814   29.1433    4.1545 H         1 UNK         0.0634 
    137 H137       33.7444   29.8720    2.6259 H         1 UNK         0.0634 
@<TRIPOS>BOND
     1    1    2 1    
     2    1   72 1    
     3    1   73 1    
     4    1   74 1    
     5    2    3 2    
     6    2    4 am   BACKBONE|DICT|INTERRES
     7    4    5 1    
     8    4   75 1    
     9    5    6 1    
    10    5   35 1    
    11    5   76 1    
    12    6    7 1    
    13    6   77 1    
    14    6   78 1    
    15    7    8 1    
    16    8    9 1    
    17    8   79 1    
    18    8   80 1    
    19    9   10 ar   
    20    9   14 ar   
    21   10   11 ar   
    22   10   81 1    
    23   11   12 ar   
    24   11   71 1    
    25   12   13 ar   
    26   12   82 1    
    27   13   14 ar   
    28   13   15 1    
    29   14   83 1    
    30   15   16 1    
    31   15   84 1    
    32   15   85 1    
    33   16   17 1    
    34   17   18 1    
    35   17   86 1    
    36   17   87 1    
    37   18   19 1    
    38   18   37 1    
    39   18   88 1    
    40   19   20 am   BACKBONE|DICT|INTERRES
    41   19   89 1    
    42   20   21 2    
    43   20   22 1    
    44   22   23 1    
    45   22   24 1    
    46   22   90 1    
    47   23   91 1    
    48   23   92 1    
    49   23   93 1    
    50   24   25 am   BACKBONE|DICT|INTERRES
    51   24   94 1    
    52   25   26 2    
    53   25   27 1    
    54   27   28 1    
    55   27   29 1    
    56   27   95 1    
    57   28   96 1    
    58   28   97 1    
    59   28   98 1    
    60   29   30 am   BACKBONE|DICT|INTERRES
    61   29   99 1    
    62   30   31 2    
    63   30   32 1    
    64   32   33 1    
    65   32   34 1    
    66   32  100 1    
    67   33  101 1    
    68   33  102 1    
    69   33  103 1    
    70   34   35 am   BACKBONE|DICT|INTERRES
    71   34  104 1    
    72   35   36 2    
    73   37   38 2    
    74   37   39 am   BACKBONE|DICT|INTERRES
    75   39   40 1    
    76   39  105 1    
    77   40   41 1    
    78   40   42 1    
    79   40  106 1    
    80   41  107 1    
    81   41  108 1    
    82   41  109 1    
    83   42   43 2    
    84   42   44 am   BACKBONE|DICT|INTERRES
    85   44   45 1    
    86   44  110 1    
    87   45   46 1    
    88   45   47 1    
    89   45  111 1    
    90   46  112 1    
    91   46  113 1    
    92   46  114 1    
    93   47   48 2    
    94   47   49 am   BACKBONE|DICT|INTERRES
    95   49   50 1    
    96   49  115 1    
    97   50   51 1    
    98   50   52 1    
    99   50  116 1    
   100   51  117 1    
   101   51  118 1    
   102   51  119 1    
   103   52   53 2    
   104   52   54 am   BACKBONE|DICT|INTERRES
   105   54   55 1    
   106   54  120 1    
   107   55   56 1    
   108   55   57 1    
   109   55  121 1    
   110   56  122 1    
   111   56  123 1    
   112   56  124 1    
   113   57   58 2    
   114   57   59 am   BACKBONE|DICT|INTERRES
   115   59   60 1    
   116   59  125 1    
   117   60   61 1    
   118   60   62 1    
   119   60  126 1    
   120   61  127 1    
   121   61  128 1    
   122   61  129 1    
   123   62   63 2    
   124   62   64 am   BACKBONE|DICT|INTERRES
   125   64   65 1    
   126   64  130 1    
   127   65   66 1    
   128   65   69 1    
   129   65  131 1    
   130   66   67 am   BACKBONE|DICT|INTERRES
   131   66   68 2    
   132   67  132 1    
   133   67  133 1    
   134   69   70 1    
   135   69  134 1    
   136   69  135 1    
   137   70   71 1    
   138   71  136 1    
   139   71  137 1    
@<TRIPOS>SUBSTRUCTURE
     1 UNK         1 GROUP             0       ****    0 ROOT    
