@<TRIPOS>MOLECULE
3R136
137   139    1
SMALL
USER_CHARGES


@<TRIPOS>ATOM
      1 CA         26.7486   19.8008   -1.1128 C.3       0 UNK        -0.1979 
      2 C          27.5402   20.3091    0.0838 C.2       0 UNK         0.4864 
      3 O          27.3779   19.7798    1.1845 O.2       0 UNK        -0.5359 
      4 N          28.3887   21.3229   -0.1399 N.am      1 UNK        -0.4318 
      5 CA         29.2221   22.0306    0.8435 C.3       1 UNK         0.0824 
      6 C6         30.2442   21.1162    1.5884 C.3       12 UNK        -0.0944 
      7 S7         31.5400   20.4803    0.4714 S.3       12 UNK        -0.2672 
      8 C8         32.9297   21.6141    0.8283 C.3       12 UNK         0.0333 
      9 C9         32.5476   23.0700    0.5945 C.ar      12 UNK        -0.0807 
     10 C10        32.5020   23.9764    1.6613 C.ar      12 UNK        -0.0894 
     11 C11        32.0584   25.2873    1.4553 C.ar      12 UNK        -0.0804 
     12 C12        31.6660   25.6866    0.1766 C.ar      12 UNK        -0.0824 
     13 C13        31.7147   24.7930   -0.8946 C.ar      12 UNK        -0.0762 
     14 C14        32.1814   23.4937   -0.6870 C.ar      12 UNK        -0.0782 
     15 C15        31.1990   25.2137   -2.2582 C.3       12 UNK         0.0230 
     16 S16        29.4088   24.8982   -2.3572 S.3       12 UNK        -0.2608 
     17 C17        28.7671   26.4807   -3.0103 C.3       12 UNK        -0.0989 
     18 CA         28.1622   27.4268   -1.9301 C.3       5 UNK         0.0716 
     19 N          27.1839   26.7584   -1.0627 N.am      5 UNK        -0.4135 
     20 C          25.9403   26.4424   -1.4539 C.2       4 UNK         0.5031 
     21 O          25.4721   26.7486   -2.5519 O.2       4 UNK        -0.5229 
     22 CA         25.0569   25.6437   -0.4760 C.3       4 UNK         0.0329 
     23 CB         25.1834   24.1379   -0.7609 C.3       4 UNK        -0.2001 
     24 N          25.3585   25.8953    0.9337 N.am      4 UNK        -0.4303 
     25 C          25.2141   27.0770    1.5512 C.2       3 UNK         0.5044 
     26 O          24.7158   28.0669    1.0147 O.2       3 UNK        -0.5152 
     27 CA         25.7291   27.2012    2.9999 C.3       3 UNK         0.0319 
     28 CB         24.5486   27.2910    3.9811 C.3       3 UNK        -0.2001 
     29 N          26.6391   26.1412    3.4528 N.am      3 UNK        -0.4354 
     30 C          27.7921   25.7754    2.8757 C.2       2 UNK         0.4964 
     31 O          28.2059   26.2517    1.8167 O.2       2 UNK        -0.5047 
     32 CA         28.6208   24.6851    3.5806 C.3       2 UNK         0.0288 
     33 CB         27.8966   23.9834    4.7534 C.3       2 UNK        -0.2113 
     34 N          29.1276   23.7007    2.6202 N.am      2 UNK        -0.4145 
     35 C          28.4021   22.9143    1.8097 C.2       1 UNK         0.5006 
     36 O          27.1676   22.9096    1.7878 O.2       1 UNK        -0.5103 
     37 C          29.2141   28.2368   -1.1416 C.2       5 UNK         0.5055 
     38 O          30.2740   28.5414   -1.6914 O.2       5 UNK        -0.5220 
     39 N          28.9248   28.5845    0.1216 N.am      6 UNK        -0.4450 
     40 CA         29.8022   29.3613    1.0025 C.3       6 UNK         0.0367 
     41 CB         29.1809   29.4444    2.4076 C.3       6 UNK        -0.1929 
     42 C          30.0704   30.7762    0.4654 C.2       6 UNK         0.5070 
     43 O          29.1207   31.5023    0.1646 O.2       6 UNK        -0.5237 
     44 N          31.3537   31.1503    0.3899 N.am      7 UNK        -0.4739 
     45 CA         31.7971   32.4958    0.0100 C.3       7 UNK         0.0276 
     46 CB         33.2566   32.4289   -0.4686 C.3       7 UNK        -0.1927 
     47 C          31.6550   33.5122    1.1575 C.2       7 UNK         0.5013 
     48 O          31.5235   34.7081    0.8944 O.2       7 UNK        -0.5193 
     49 N          31.6848   33.0200    2.4004 N.am      8 UNK        -0.4253 
     50 CA         31.5391   33.7683    3.6424 C.3       8 UNK         0.0242 
     51 CB         32.8551   34.4952    3.9813 C.3       8 UNK        -0.2000 
     52 C          31.1678   32.7711    4.7444 C.2       8 UNK         0.4948 
     53 O          31.3964   31.5691    4.5809 O.2       8 UNK        -0.5275 
     54 N          30.6542   33.2845    5.8701 N.am      9 UNK        -0.4246 
     55 CA         30.2329   32.5047    7.0440 C.3       9 UNK         0.0261 
     56 CB         29.5729   33.4493    8.0625 C.3       9 UNK        -0.1959 
     57 C          31.3517   31.6835    7.7186 C.2       9 UNK         0.5033 
     58 O          31.0472   30.7544    8.4673 O.2       9 UNK        -0.5390 
     59 N          32.6164   32.0260    7.4380 N.am      10 UNK        -0.4215 
     60 CA         33.8078   31.2906    7.8635 C.3       10 UNK         0.0240 
     61 CB         35.0411   32.1879    7.6646 C.3       10 UNK        -0.1982 
     62 C          34.0026   29.9420    7.1406 C.2       10 UNK         0.4970 
     63 O          34.7717   29.1183    7.6379 O.2       10 UNK        -0.4916 
     64 N          33.3418   29.7371    5.9903 N.am      11 UNK        -0.4279 
     65 CA         33.3809   28.4874    5.2180 C.3       11 UNK         0.1003 
     66 C          32.7445   27.3009    5.9947 C.2       11 UNK         0.5709 
     67 N          33.4240   26.1643    6.0697 N.am      11 UNK        -0.7358 
     68 O          31.6246   27.3933    6.4927 O.2       11 UNK        -0.4999 
     69 C69        32.7209   28.6816    3.8280 C.3       12 UNK        -0.0954 
     70 S70        33.3019   27.4838    2.5821 S.3       12 UNK        -0.2268 
     71 C71        31.9492   26.2696    2.6099 C.3       12 UNK         0.0203 
     72 H72        26.9943   20.3424   -2.0262 H         1 UNK         0.0888 
     73 H73        26.9567   18.7442   -1.2793 H         1 UNK         0.0888 
     74 H74        25.6803   19.9139   -0.9297 H         1 UNK         0.0888 
     75 H75        28.4449   21.7001   -1.0752 H         1 UNK         0.3017 
     76 H76        29.7813   22.7495    0.2475 H         1 UNK         0.0873 
     77 H77        30.7412   21.6380    2.4070 H         1 UNK         0.0745 
     78 H78        29.7445   20.2687    2.0579 H         1 UNK         0.0745 
     79 H79        33.2635   21.4575    1.8553 H         1 UNK         0.0705 
     80 H80        33.7735   21.3560    0.1869 H         1 UNK         0.0705 
     81 H81        32.7890   23.6564    2.6540 H         1 UNK         0.1334 
     82 H82        31.3030   26.6914    0.0208 H         1 UNK         0.1417 
     83 H83        32.1987   22.7905   -1.5090 H         1 UNK         0.1562 
     84 H84        31.7065   24.6599   -3.0493 H         1 UNK         0.0748 
     85 H85        31.4248   26.2665   -2.4293 H         1 UNK         0.0748 
     86 H86        27.9855   26.2266   -3.7278 H         1 UNK         0.0940 
     87 H87        29.5305   26.9838   -3.6062 H         1 UNK         0.0940 
     88 H88        27.6204   28.2046   -2.4728 H         1 UNK         0.0703 
     89 H89        27.5192   26.4452   -0.1567 H         1 UNK         0.3081 
     90 H90        24.0204   25.9400   -0.6501 H         1 UNK         0.0719 
     91 H91        26.2075   23.7872   -0.6259 H         1 UNK         0.0809 
     92 H92        24.5390   23.5510   -0.1062 H         1 UNK         0.0809 
     93 H93        24.8958   23.9103   -1.7882 H         1 UNK         0.0809 
     94 H94        25.7907   25.1384    1.4469 H         1 UNK         0.2990 
     95 H95        26.2849   28.1392    3.0525 H         1 UNK         0.0690 
     96 H96        24.8887   27.4998    4.9957 H         1 UNK         0.0788 
     97 H97        23.9718   26.3655    4.0022 H         1 UNK         0.0788 
     98 H98        23.8653   28.0943    3.7014 H         1 UNK         0.0788 
     99 H99        26.3745   25.6655    4.3034 H         1 UNK         0.2993 
    100 H100       29.4927   25.1943    3.9924 H         1 UNK         0.0949 
    101 H101       28.5308   23.2162    5.1980 H         1 UNK         0.0767 
    102 H102       27.6520   24.6874    5.5499 H         1 UNK         0.0767 
    103 H103       26.9717   23.4991    4.4372 H         1 UNK         0.0767 
    104 H104       30.1308   23.6928    2.5040 H         1 UNK         0.3013 
    105 H105       28.0383   28.3038    0.5125 H         1 UNK         0.3121 
    106 H106       30.7522   28.8295    1.0798 H         1 UNK         0.0774 
    107 H107       29.7730   30.0855    3.0611 H         1 UNK         0.0815 
    108 H108       28.1726   29.8589    2.3792 H         1 UNK         0.0815 
    109 H109       29.1320   28.4677    2.8850 H         1 UNK         0.0815 
    110 H110       32.0749   30.4842    0.6286 H         1 UNK         0.2987 
    111 H111       31.1807   32.8483   -0.8204 H         1 UNK         0.0949 
    112 H112       33.9263   32.0807    0.3189 H         1 UNK         0.0806 
    113 H113       33.3638   31.7595   -1.3225 H         1 UNK         0.0806 
    114 H114       33.6085   33.4123   -0.7839 H         1 UNK         0.0806 
    115 H115       31.7506   32.0190    2.5376 H         1 UNK         0.3010 
    116 H116       30.7271   34.4903    3.5327 H         1 UNK         0.0829 
    117 H117       33.1286   35.2071    3.2024 H         1 UNK         0.0813 
    118 H118       32.7693   35.0584    4.9112 H         1 UNK         0.0813 
    119 H119       33.6833   33.7946    4.0964 H         1 UNK         0.0813 
    120 H120       30.5153   34.2839    5.9250 H         1 UNK         0.3038 
    121 H121       29.4803   31.7898    6.7044 H         1 UNK         0.0769 
    122 H122       30.2702   34.2079    8.4202 H         1 UNK         0.0811 
    123 H123       29.2168   32.8980    8.9341 H         1 UNK         0.0811 
    124 H124       28.7107   33.9593    7.6323 H         1 UNK         0.0811 
    125 H125       32.7640   32.8126    6.8236 H         1 UNK         0.3204 
    126 H126       33.7100   31.0749    8.9297 H         1 UNK         0.0748 
    127 H127       35.9484   31.6871    8.0058 H         1 UNK         0.0771 
    128 H128       35.1876   32.4472    6.6151 H         1 UNK         0.0771 
    129 H129       34.9540   33.1149    8.2318 H         1 UNK         0.0771 
    130 H130       32.6982   30.4440    5.6510 H         1 UNK         0.2980 
    131 H131       34.4382   28.2657    5.0582 H         1 UNK         0.0545 
    132 H132       34.3391   26.0780    5.6562 H         1 UNK         0.3459 
    133 H133       33.0214   25.3842    6.5640 H         1 UNK         0.3459 
    134 H134       31.6323   28.6686    3.8989 H         1 UNK         0.0616 
    135 H135       32.9772   29.6660    3.4335 H         1 UNK         0.0616 
    136 H136       30.9909   26.7867    2.5481 H         1 UNK         0.0634 
    137 H137       31.9566   25.7412    3.5635 H         1 UNK         0.0634 
@<TRIPOS>BOND
     1    1    2 1    
     2    1   72 1    
     3    1   73 1    
     4    1   74 1    
     5    2    3 2    
     6    2    4 am   BACKBONE|DICT|INTERRES
     7    4    5 1    
     8    4   75 1    
     9    5    6 1    
    10    5   35 1    
    11    5   76 1    
    12    6    7 1    
    13    6   77 1    
    14    6   78 1    
    15    7    8 1    
    16    8    9 1    
    17    8   79 1    
    18    8   80 1    
    19    9   10 ar   
    20    9   14 ar   
    21   10   11 ar   
    22   10   81 1    
    23   11   12 ar   
    24   11   71 1    
    25   12   13 ar   
    26   12   82 1    
    27   13   14 ar   
    28   13   15 1    
    29   14   83 1    
    30   15   16 1    
    31   15   84 1    
    32   15   85 1    
    33   16   17 1    
    34   17   18 1    
    35   17   86 1    
    36   17   87 1    
    37   18   19 1    
    38   18   37 1    
    39   18   88 1    
    40   19   20 am   BACKBONE|DICT|INTERRES
    41   19   89 1    
    42   20   21 2    
    43   20   22 1    
    44   22   23 1    
    45   22   24 1    
    46   22   90 1    
    47   23   91 1    
    48   23   92 1    
    49   23   93 1    
    50   24   25 am   BACKBONE|DICT|INTERRES
    51   24   94 1    
    52   25   26 2    
    53   25   27 1    
    54   27   28 1    
    55   27   29 1    
    56   27   95 1    
    57   28   96 1    
    58   28   97 1    
    59   28   98 1    
    60   29   30 am   BACKBONE|DICT|INTERRES
    61   29   99 1    
    62   30   31 2    
    63   30   32 1    
    64   32   33 1    
    65   32   34 1    
    66   32  100 1    
    67   33  101 1    
    68   33  102 1    
    69   33  103 1    
    70   34   35 am   BACKBONE|DICT|INTERRES
    71   34  104 1    
    72   35   36 2    
    73   37   38 2    
    74   37   39 am   BACKBONE|DICT|INTERRES
    75   39   40 1    
    76   39  105 1    
    77   40   41 1    
    78   40   42 1    
    79   40  106 1    
    80   41  107 1    
    81   41  108 1    
    82   41  109 1    
    83   42   43 2    
    84   42   44 am   BACKBONE|DICT|INTERRES
    85   44   45 1    
    86   44  110 1    
    87   45   46 1    
    88   45   47 1    
    89   45  111 1    
    90   46  112 1    
    91   46  113 1    
    92   46  114 1    
    93   47   48 2    
    94   47   49 am   BACKBONE|DICT|INTERRES
    95   49   50 1    
    96   49  115 1    
    97   50   51 1    
    98   50   52 1    
    99   50  116 1    
   100   51  117 1    
   101   51  118 1    
   102   51  119 1    
   103   52   53 2    
   104   52   54 am   BACKBONE|DICT|INTERRES
   105   54   55 1    
   106   54  120 1    
   107   55   56 1    
   108   55   57 1    
   109   55  121 1    
   110   56  122 1    
   111   56  123 1    
   112   56  124 1    
   113   57   58 2    
   114   57   59 am   BACKBONE|DICT|INTERRES
   115   59   60 1    
   116   59  125 1    
   117   60   61 1    
   118   60   62 1    
   119   60  126 1    
   120   61  127 1    
   121   61  128 1    
   122   61  129 1    
   123   62   63 2    
   124   62   64 am   BACKBONE|DICT|INTERRES
   125   64   65 1    
   126   64  130 1    
   127   65   66 1    
   128   65   69 1    
   129   65  131 1    
   130   66   67 am   BACKBONE|DICT|INTERRES
   131   66   68 2    
   132   67  132 1    
   133   67  133 1    
   134   69   70 1    
   135   69  134 1    
   136   69  135 1    
   137   70   71 1    
   138   71  136 1    
   139   71  137 1    
@<TRIPOS>SUBSTRUCTURE
     1 UNK         1 GROUP             0       ****    0 ROOT    
