@<TRIPOS>MOLECULE
3R136
137   139    1
SMALL
USER_CHARGES


@<TRIPOS>ATOM
      1 CA         31.6598   25.6900   -1.6436 C.3       0 UNK        -0.1979 
      2 C          30.8196   24.4779   -1.2674 C.2       0 UNK         0.4864 
      3 O          30.7438   23.5234   -2.0422 O.2       0 UNK        -0.5359 
      4 N          30.1988   24.5147   -0.0811 N.am      1 UNK        -0.4318 
      5 CA         29.3050   23.4872    0.4668 C.3       1 UNK         0.0824 
      6 C6         30.0475   22.1636    0.8197 C.3       12 UNK        -0.0944 
      7 S7         29.2777   21.3059    2.2387 S.3       12 UNK        -0.2672 
      8 C8         30.2899   21.8910    3.6399 C.3       12 UNK         0.0333 
      9 C9         30.3097   23.4108    3.7296 C.ar      12 UNK        -0.0807 
     10 C10        31.4352   24.1215    3.3033 C.ar      12 UNK        -0.0894 
     11 C11        31.4488   25.5184    3.3168 C.ar      12 UNK        -0.0804 
     12 C12        30.3152   26.2032    3.7738 C.ar      12 UNK        -0.0824 
     13 C13        29.1870   25.5055    4.2180 C.ar      12 UNK        -0.0762 
     14 C14        29.1927   24.1076    4.1997 C.ar      12 UNK        -0.0782 
     15 C15        27.9634   26.2577    4.7248 C.3       12 UNK         0.0230 
     16 S16        26.7370   26.5451    3.4066 S.3       12 UNK        -0.2608 
     17 C17        27.5501   27.8517    2.4261 C.3       12 UNK        -0.0989 
     18 CA         28.0705   27.3065    1.0724 C.3       5 UNK         0.0716 
     19 N          27.0056   26.8861    0.1513 N.am      5 UNK        -0.4135 
     20 C          26.0037   27.6143   -0.3618 C.2       4 UNK         0.5031 
     21 O          25.8774   28.8281   -0.1972 O.2       4 UNK        -0.5229 
     22 CA         24.9767   26.8580   -1.2166 C.3       4 UNK         0.0329 
     23 CB         25.4692   26.7336   -2.6676 C.3       4 UNK        -0.2001 
     24 N          24.7135   25.5245   -0.6759 N.am      4 UNK        -0.4303 
     25 C          23.9102   25.2601    0.3638 C.2       3 UNK         0.5044 
     26 O          23.2238   26.1190    0.9191 O.2       3 UNK        -0.5152 
     27 CA         23.8717   23.8152    0.9104 C.3       3 UNK         0.0319 
     28 CB         22.4607   23.2026    0.7914 C.3       3 UNK        -0.2001 
     29 N          24.8980   22.9118    0.3647 N.am      3 UNK        -0.4354 
     30 C          25.0211   22.4443   -0.8878 C.2       2 UNK         0.4964 
     31 O          24.2054   22.6638   -1.7837 O.2       2 UNK        -0.5047 
     32 CA         26.3053   21.6464   -1.1993 C.3       2 UNK         0.0288 
     33 CB         26.6377   21.6324   -2.7070 C.3       2 UNK        -0.2113 
     34 N          27.4828   22.0826   -0.4316 N.am      2 UNK        -0.4145 
     35 C          28.0242   23.3111   -0.3828 C.2       1 UNK         0.5006 
     36 O          27.5234   24.3007   -0.9252 O.2       1 UNK        -0.5103 
     37 C          29.1155   28.2540    0.4496 C.2       5 UNK         0.5055 
     38 O          30.2952   28.1065    0.7666 O.2       5 UNK        -0.5220 
     39 N          28.6869   29.1786   -0.4204 N.am      6 UNK        -0.4450 
     40 CA         29.4780   30.2346   -1.0579 C.3       6 UNK         0.0367 
     41 CB         30.5658   29.6435   -1.9860 C.3       6 UNK        -0.1929 
     42 C          29.9976   31.2269   -0.0006 C.2       6 UNK         0.5070 
     43 O          29.1832   31.8054    0.7223 O.2       6 UNK        -0.5237 
     44 N          31.3204   31.4134    0.0919 N.am      7 UNK        -0.4739 
     45 CA         31.9924   32.2856    1.0602 C.3       7 UNK         0.0276 
     46 CB         33.4086   32.6025    0.5433 C.3       7 UNK        -0.1927 
     47 C          32.0080   31.6748    2.4762 C.2       7 UNK         0.5013 
     48 O          33.0811   31.4050    3.0168 O.2       7 UNK        -0.5193 
     49 N          30.8140   31.4790    3.0539 N.am      8 UNK        -0.4253 
     50 CA         30.5477   30.8102    4.3351 C.3       8 UNK         0.0242 
     51 CB         29.0457   30.9046    4.6476 C.3       8 UNK        -0.2000 
     52 C          31.3719   31.3199    5.5319 C.2       8 UNK         0.4948 
     53 O          31.6953   30.5308    6.4188 O.2       8 UNK        -0.5275 
     54 N          31.7266   32.6124    5.5234 N.am      9 UNK        -0.4246 
     55 CA         32.5968   33.2477    6.5160 C.3       9 UNK         0.0261 
     56 CB         32.5721   34.7706    6.3080 C.3       9 UNK        -0.1959 
     57 C          34.0477   32.7274    6.4987 C.2       9 UNK         0.5033 
     58 O          34.7009   32.7560    7.5426 O.2       9 UNK        -0.5390 
     59 N          34.5293   32.2607    5.3370 N.am      10 UNK        -0.4215 
     60 CA         35.8671   31.6864    5.1700 C.3       10 UNK         0.0240 
     61 CB         36.3529   31.9452    3.7335 C.3       10 UNK        -0.1982 
     62 C          35.9069   30.1814    5.4887 C.2       10 UNK         0.4970 
     63 O          36.9966   29.6470    5.6984 O.2       10 UNK        -0.4916 
     64 N          34.7403   29.5239    5.5130 N.am      11 UNK        -0.4279 
     65 CA         34.5855   28.0859    5.7841 C.3       11 UNK         0.1003 
     66 C          34.7970   27.6828    7.2727 C.2       11 UNK         0.5709 
     67 N          34.8456   28.6149    8.2178 N.am      11 UNK        -0.7358 
     68 O          34.9311   26.4991    7.5740 O.2       11 UNK        -0.4999 
     69 C69        33.2310   27.5474    5.2541 C.3       12 UNK        -0.0954 
     70 S70        32.9695   27.9060    3.4834 S.3       12 UNK        -0.2268 
     71 C71        32.6898   26.2427    2.7921 C.3       12 UNK         0.0203 
     72 H72        31.7438   26.4003   -0.8212 H         1 UNK         0.0888 
     73 H73        32.6658   25.3786   -1.9231 H         1 UNK         0.0888 
     74 H74        31.2129   26.2062   -2.4928 H         1 UNK         0.0888 
     75 H75        30.3223   25.3304    0.5017 H         1 UNK         0.3017 
     76 H76        28.9442   23.9279    1.3953 H         1 UNK         0.0873 
     77 H77        30.1004   21.4900   -0.0377 H         1 UNK         0.0745 
     78 H78        31.0879   22.3686    1.0744 H         1 UNK         0.0745 
     79 H79        31.3020   21.4955    3.5401 H         1 UNK         0.0705 
     80 H80        29.8895   21.4758    4.5659 H         1 UNK         0.0705 
     81 H81        32.2981   23.5836    2.9346 H         1 UNK         0.1334 
     82 H82        30.3064   27.2831    3.7788 H         1 UNK         0.1417 
     83 H83        28.3185   23.5609    4.5270 H         1 UNK         0.1562 
     84 H84        28.2553   27.2086    5.1735 H         1 UNK         0.0748 
     85 H85        27.4878   25.6851    5.5225 H         1 UNK         0.0748 
     86 H86        28.3641   28.2770    3.0134 H         1 UNK         0.0940 
     87 H87        26.8438   28.6694    2.2756 H         1 UNK         0.0940 
     88 H88        28.6187   26.3912    1.2928 H         1 UNK         0.0703 
     89 H89        27.0642   25.9161   -0.1497 H         1 UNK         0.3081 
     90 H90        24.0472   27.4315   -1.2171 H         1 UNK         0.0719 
     91 H91        26.3959   26.1618   -2.7355 H         1 UNK         0.0809 
     92 H92        24.7267   26.2412   -3.2958 H         1 UNK         0.0809 
     93 H93        25.6593   27.7168   -3.1005 H         1 UNK         0.0809 
     94 H94        25.2494   24.7621   -1.0696 H         1 UNK         0.2990 
     95 H95        24.0993   23.8996    1.9743 H         1 UNK         0.0690 
     96 H96        22.4261   22.1988    1.2147 H         1 UNK         0.0788 
     97 H97        22.1265   23.1432   -0.2446 H         1 UNK         0.0788 
     98 H98        21.7286   23.8056    1.3300 H         1 UNK         0.0788 
     99 H99        25.6370   22.6741    1.0117 H         1 UNK         0.2993 
    100 H100       26.0998   20.6188   -0.8952 H         1 UNK         0.0949 
    101 H101       26.8049   22.6393   -3.0918 H         1 UNK         0.0767 
    102 H102       27.5330   21.0446   -2.9098 H         1 UNK         0.0767 
    103 H103       25.8255   21.1916   -3.2865 H         1 UNK         0.0767 
    104 H104       27.9441   21.3597    0.1069 H         1 UNK         0.3013 
    105 H105       27.6787   29.2474   -0.5403 H         1 UNK         0.3121 
    106 H106       28.7853   30.7982   -1.6845 H         1 UNK         0.0774 
    107 H107       31.0784   30.4307   -2.5404 H         1 UNK         0.0815 
    108 H108       31.3211   29.0771   -1.4406 H         1 UNK         0.0815 
    109 H109       30.1247   28.9730   -2.7234 H         1 UNK         0.0815 
    110 H110       31.9193   30.8607   -0.5043 H         1 UNK         0.2987 
    111 H111       31.4433   33.2279    1.1218 H         1 UNK         0.0949 
    112 H112       34.0159   31.7010    0.4499 H         1 UNK         0.0806 
    113 H113       33.3768   33.0894   -0.4315 H         1 UNK         0.0806 
    114 H114       33.9312   33.2769    1.2233 H         1 UNK         0.0806 
    115 H115       30.0032   31.7059    2.4843 H         1 UNK         0.3010 
    116 H116       30.7987   29.7580    4.1967 H         1 UNK         0.0829 
    117 H117       28.7971   30.3355    5.5447 H         1 UNK         0.0813 
    118 H118       28.7352   31.9362    4.8186 H         1 UNK         0.0813 
    119 H119       28.4400   30.5080    3.8335 H         1 UNK         0.0813 
    120 H120       31.4131   33.1866    4.7544 H         1 UNK         0.3038 
    121 H121       32.1858   33.0312    7.5044 H         1 UNK         0.0769 
    122 H122       33.1899   35.2756    7.0522 H         1 UNK         0.0811 
    123 H123       31.5621   35.1691    6.4052 H         1 UNK         0.0811 
    124 H124       32.9526   35.0509    5.3249 H         1 UNK         0.0811 
    125 H125       33.9159   32.2004    4.5266 H         1 UNK         0.3204 
    126 H126       36.5599   32.1843    5.8519 H         1 UNK         0.0748 
    127 H127       37.3767   31.5935    3.5995 H         1 UNK         0.0771 
    128 H128       35.7349   31.4304    2.9969 H         1 UNK         0.0771 
    129 H129       36.3422   33.0090    3.4958 H         1 UNK         0.0771 
    130 H130       33.8861   30.0303    5.3297 H         1 UNK         0.2980 
    131 H131       35.3718   27.5721    5.2277 H         1 UNK         0.0545 
    132 H132       34.7293   29.5874    7.9809 H         1 UNK         0.3459 
    133 H133       34.9883   28.3400    9.1766 H         1 UNK         0.3459 
    134 H134       33.1666   26.4692    5.4112 H         1 UNK         0.0616 
    135 H135       32.4005   27.9827    5.8118 H         1 UNK         0.0616 
    136 H136       33.5824   25.6434    2.9789 H         1 UNK         0.0634 
    137 H137       32.5989   26.3365    1.7094 H         1 UNK         0.0634 
@<TRIPOS>BOND
     1    1    2 1    
     2    1   72 1    
     3    1   73 1    
     4    1   74 1    
     5    2    3 2    
     6    2    4 am   BACKBONE|DICT|INTERRES
     7    4    5 1    
     8    4   75 1    
     9    5    6 1    
    10    5   35 1    
    11    5   76 1    
    12    6    7 1    
    13    6   77 1    
    14    6   78 1    
    15    7    8 1    
    16    8    9 1    
    17    8   79 1    
    18    8   80 1    
    19    9   10 ar   
    20    9   14 ar   
    21   10   11 ar   
    22   10   81 1    
    23   11   12 ar   
    24   11   71 1    
    25   12   13 ar   
    26   12   82 1    
    27   13   14 ar   
    28   13   15 1    
    29   14   83 1    
    30   15   16 1    
    31   15   84 1    
    32   15   85 1    
    33   16   17 1    
    34   17   18 1    
    35   17   86 1    
    36   17   87 1    
    37   18   19 1    
    38   18   37 1    
    39   18   88 1    
    40   19   20 am   BACKBONE|DICT|INTERRES
    41   19   89 1    
    42   20   21 2    
    43   20   22 1    
    44   22   23 1    
    45   22   24 1    
    46   22   90 1    
    47   23   91 1    
    48   23   92 1    
    49   23   93 1    
    50   24   25 am   BACKBONE|DICT|INTERRES
    51   24   94 1    
    52   25   26 2    
    53   25   27 1    
    54   27   28 1    
    55   27   29 1    
    56   27   95 1    
    57   28   96 1    
    58   28   97 1    
    59   28   98 1    
    60   29   30 am   BACKBONE|DICT|INTERRES
    61   29   99 1    
    62   30   31 2    
    63   30   32 1    
    64   32   33 1    
    65   32   34 1    
    66   32  100 1    
    67   33  101 1    
    68   33  102 1    
    69   33  103 1    
    70   34   35 am   BACKBONE|DICT|INTERRES
    71   34  104 1    
    72   35   36 2    
    73   37   38 2    
    74   37   39 am   BACKBONE|DICT|INTERRES
    75   39   40 1    
    76   39  105 1    
    77   40   41 1    
    78   40   42 1    
    79   40  106 1    
    80   41  107 1    
    81   41  108 1    
    82   41  109 1    
    83   42   43 2    
    84   42   44 am   BACKBONE|DICT|INTERRES
    85   44   45 1    
    86   44  110 1    
    87   45   46 1    
    88   45   47 1    
    89   45  111 1    
    90   46  112 1    
    91   46  113 1    
    92   46  114 1    
    93   47   48 2    
    94   47   49 am   BACKBONE|DICT|INTERRES
    95   49   50 1    
    96   49  115 1    
    97   50   51 1    
    98   50   52 1    
    99   50  116 1    
   100   51  117 1    
   101   51  118 1    
   102   51  119 1    
   103   52   53 2    
   104   52   54 am   BACKBONE|DICT|INTERRES
   105   54   55 1    
   106   54  120 1    
   107   55   56 1    
   108   55   57 1    
   109   55  121 1    
   110   56  122 1    
   111   56  123 1    
   112   56  124 1    
   113   57   58 2    
   114   57   59 am   BACKBONE|DICT|INTERRES
   115   59   60 1    
   116   59  125 1    
   117   60   61 1    
   118   60   62 1    
   119   60  126 1    
   120   61  127 1    
   121   61  128 1    
   122   61  129 1    
   123   62   63 2    
   124   62   64 am   BACKBONE|DICT|INTERRES
   125   64   65 1    
   126   64  130 1    
   127   65   66 1    
   128   65   69 1    
   129   65  131 1    
   130   66   67 am   BACKBONE|DICT|INTERRES
   131   66   68 2    
   132   67  132 1    
   133   67  133 1    
   134   69   70 1    
   135   69  134 1    
   136   69  135 1    
   137   70   71 1    
   138   71  136 1    
   139   71  137 1    
@<TRIPOS>SUBSTRUCTURE
     1 UNK         1 GROUP             0       ****    0 ROOT    
