@<TRIPOS>MOLECULE
3R136
137   139    1
SMALL
USER_CHARGES


@<TRIPOS>ATOM
      1 CA         33.1363   24.4372   -2.1436 C.3       0 UNK        -0.1979 
      2 C          32.0854   23.8083   -1.2410 C.2       0 UNK         0.4864 
      3 O          31.3613   22.9180   -1.6874 O.2       0 UNK        -0.5359 
      4 N          31.9974   24.2721    0.0145 N.am      1 UNK        -0.4318 
      5 CA         31.0840   23.8290    1.0758 C.3       1 UNK         0.0824 
      6 C6         31.4582   22.4287    1.6368 C.3       12 UNK        -0.0944 
      7 S7         32.8139   22.5675    2.8497 S.3       12 UNK        -0.2672 
      8 C8         31.9641   22.1522    4.4093 C.3       12 UNK         0.0333 
      9 C9         30.8821   23.1628    4.7697 C.ar      12 UNK        -0.0807 
     10 C10        31.2206   24.3600    5.4076 C.ar      12 UNK        -0.0894 
     11 C11        30.2297   25.2883    5.7413 C.ar      12 UNK        -0.0804 
     12 C12        28.8933   25.0068    5.4487 C.ar      12 UNK        -0.0824 
     13 C13        28.5409   23.8149    4.8120 C.ar      12 UNK        -0.0762 
     14 C14        29.5392   22.8941    4.4811 C.ar      12 UNK        -0.0782 
     15 C15        27.0834   23.5117    4.4966 C.3       12 UNK         0.0230 
     16 S16        26.5161   24.3813    3.0001 S.3       12 UNK        -0.2608 
     17 C17        26.0212   26.0105    3.6539 C.3       12 UNK        -0.0989 
     18 CA         26.9140   27.1792    3.1544 C.3       5 UNK         0.0716 
     19 N          26.8211   27.3461    1.7025 N.am      5 UNK        -0.4135 
     20 C          27.6852   28.0280    0.9418 C.2       4 UNK         0.5031 
     21 O          28.7355   28.5262    1.3573 O.2       4 UNK        -0.5229 
     22 CA         27.3124   28.1631   -0.5395 C.3       4 UNK         0.0329 
     23 CB         27.8478   29.4816   -1.1415 C.3       4 UNK        -0.2001 
     24 N          27.8058   26.9901   -1.2632 N.am      4 UNK        -0.4303 
     25 C          27.4952   26.6750   -2.5304 C.2       3 UNK         0.5044 
     26 O          26.7624   27.3595   -3.2458 O.2       3 UNK        -0.5152 
     27 CA         28.0805   25.3721   -3.1141 C.3       3 UNK         0.0319 
     28 CB         29.4411   25.6445   -3.7753 C.3       3 UNK        -0.2001 
     29 N          28.2322   24.2955   -2.1350 N.am      3 UNK        -0.4354 
     30 C          27.2348   23.7403   -1.4312 C.2       2 UNK         0.4964 
     31 O          26.0437   23.9877   -1.6224 O.2       2 UNK        -0.5047 
     32 CA         27.6219   22.7570   -0.3089 C.3       2 UNK         0.0288 
     33 CB         27.3597   21.3078   -0.7502 C.3       2 UNK        -0.2113 
     34 N          29.0058   22.8617    0.1714 N.am      2 UNK        -0.4145 
     35 C          29.6147   23.9657    0.6334 C.2       1 UNK         0.5006 
     36 O          29.0852   25.0767    0.6715 O.2       1 UNK        -0.5103 
     37 C          26.5160   28.5014    3.8445 C.2       5 UNK         0.5055 
     38 O          25.3463   28.6728    4.1964 O.2       5 UNK        -0.5220 
     39 N          27.4696   29.4237    4.0039 N.am      6 UNK        -0.4450 
     40 CA         27.2760   30.7210    4.6472 C.3       6 UNK         0.0367 
     41 CB         26.6245   31.7133    3.6652 C.3       6 UNK        -0.1929 
     42 C          28.6241   31.2387    5.1558 C.2       6 UNK         0.5070 
     43 O          29.6687   30.8295    4.6435 O.2       6 UNK        -0.5237 
     44 N          28.5738   32.1328    6.1519 N.am      7 UNK        -0.4739 
     45 CA         29.7332   32.7310    6.8196 C.3       7 UNK         0.0276 
     46 CB         29.2480   33.7083    7.9039 C.3       7 UNK        -0.1927 
     47 C          30.6843   33.4290    5.8318 C.2       7 UNK         0.5013 
     48 O          30.3013   34.4317    5.2252 O.2       7 UNK        -0.5193 
     49 N          31.8875   32.8571    5.6839 N.am      8 UNK        -0.4253 
     50 CA         32.9620   33.2640    4.7709 C.3       8 UNK         0.0242 
     51 CB         33.5109   34.6571    5.1512 C.3       8 UNK        -0.2000 
     52 C          32.6014   33.1508    3.2731 C.2       8 UNK         0.4948 
     53 O          33.2083   33.8509    2.4594 O.2       8 UNK        -0.5275 
     54 N          31.6478   32.2717    2.9261 N.am      9 UNK        -0.4246 
     55 CA         31.2913   31.9363    1.5464 C.3       9 UNK         0.0261 
     56 CB         29.7717   31.7215    1.4392 C.3       9 UNK        -0.1959 
     57 C          32.1452   30.7508    1.0582 C.2       9 UNK         0.5033 
     58 O          33.3685   30.8880    0.9986 O.2       9 UNK        -0.5390 
     59 N          31.5230   29.6188    0.6952 N.am      10 UNK        -0.4215 
     60 CA         32.2210   28.4696    0.1054 C.3       10 UNK         0.0240 
     61 CB         31.2704   27.7211   -0.8424 C.3       10 UNK        -0.1982 
     62 C          32.8298   27.5045    1.1378 C.2       10 UNK         0.4970 
     63 O          33.4553   26.5301    0.7197 O.2       10 UNK        -0.4916 
     64 N          32.6235   27.7510    2.4384 N.am      11 UNK        -0.4279 
     65 CA         33.1044   26.9309    3.5624 C.3       11 UNK         0.1003 
     66 C          34.6237   26.6064    3.4960 C.2       11 UNK         0.5709 
     67 N          34.9975   25.3363    3.5762 N.am      11 UNK        -0.7358 
     68 O          35.4614   27.5028    3.4149 O.2       11 UNK        -0.4999 
     69 C69        32.7756   27.5971    4.9227 C.3       12 UNK        -0.0954 
     70 S70        30.9936   27.8766    5.1854 S.3       12 UNK        -0.2268 
     71 C71        30.5898   26.6007    6.4159 C.3       12 UNK         0.0203 
     72 H72        32.6583   24.9407   -2.9833 H         1 UNK         0.0888 
     73 H73        33.7488   25.1656   -1.6127 H         1 UNK         0.0888 
     74 H74        33.7975   23.6671   -2.5398 H         1 UNK         0.0888 
     75 H75        32.6164   25.0347    0.2883 H         1 UNK         0.3017 
     76 H76        31.1878   24.5551    1.8846 H         1 UNK         0.0873 
     77 H77        31.7704   21.7521    0.8397 H         1 UNK         0.0745 
     78 H78        30.6116   21.9399    2.1175 H         1 UNK         0.0745 
     79 H79        32.7034   22.1095    5.2105 H         1 UNK         0.0705 
     80 H80        31.5430   21.1483    4.3347 H         1 UNK         0.0705 
     81 H81        32.2555   24.5718    5.6380 H         1 UNK         0.1334 
     82 H82        28.1281   25.7216    5.7146 H         1 UNK         0.1417 
     83 H83        29.2670   21.9643    4.0008 H         1 UNK         0.1562 
     84 H84        26.4501   23.7645    5.3482 H         1 UNK         0.0748 
     85 H85        26.9519   22.4403    4.3381 H         1 UNK         0.0748 
     86 H86        26.0130   25.9746    4.7442 H         1 UNK         0.0940 
     87 H87        24.9813   26.1744    3.3640 H         1 UNK         0.0940 
     88 H88        27.9518   26.9557    3.4132 H         1 UNK         0.0703 
     89 H89        26.0011   26.9492    1.2692 H         1 UNK         0.3081 
     90 H90        26.2230   28.1772   -0.6139 H         1 UNK         0.0719 
     91 H91        27.5055   30.3366   -0.5574 H         1 UNK         0.0809 
     92 H92        28.9355   29.5133   -1.1556 H         1 UNK         0.0809 
     93 H93        27.4973   29.6371   -2.1612 H         1 UNK         0.0809 
     94 H94        28.3656   26.3429   -0.7121 H         1 UNK         0.2990 
     95 H95        27.3910   25.0188   -3.8836 H         1 UNK         0.0690 
     96 H96        30.1820   25.9781   -3.0488 H         1 UNK         0.0788 
     97 H97        29.3569   26.4221   -4.5358 H         1 UNK         0.0788 
     98 H98        29.8308   24.7524   -4.2663 H         1 UNK         0.0788 
     99 H99        29.1762   23.9997   -1.9238 H         1 UNK         0.2993 
    100 H100       26.9693   22.9770    0.5361 H         1 UNK         0.0949 
    101 H101       28.0120   21.0142   -1.5738 H         1 UNK         0.0767 
    102 H102       27.5162   20.6077    0.0708 H         1 UNK         0.0767 
    103 H103       26.3299   21.1812   -1.0879 H         1 UNK         0.0767 
    104 H104       29.5627   22.0227    0.0958 H         1 UNK         0.3013 
    105 H105       28.4180   29.2392    3.6928 H         1 UNK         0.3121 
    106 H106       26.6234   30.5914    5.5135 H         1 UNK         0.0774 
    107 H107       26.5477   32.7102    4.1010 H         1 UNK         0.0815 
    108 H108       27.1958   31.8022    2.7424 H         1 UNK         0.0815 
    109 H109       25.6148   31.4009    3.3992 H         1 UNK         0.0815 
    110 H110       27.6679   32.4324    6.4827 H         1 UNK         0.2987 
    111 H111       30.2734   31.9221    7.3165 H         1 UNK         0.0949 
    112 H112       28.6432   33.2013    8.6560 H         1 UNK         0.0806 
    113 H113       30.0921   34.1647    8.4228 H         1 UNK         0.0806 
    114 H114       28.6507   34.5173    7.4810 H         1 UNK         0.0806 
    115 H115       32.0708   32.0128    6.2090 H         1 UNK         0.3010 
    116 H116       33.7689   32.5464    4.9273 H         1 UNK         0.0829 
    117 H117       33.7736   34.7063    6.2078 H         1 UNK         0.0813 
    118 H118       34.4133   34.8914    4.5851 H         1 UNK         0.0813 
    119 H119       32.7874   35.4470    4.9473 H         1 UNK         0.0813 
    120 H120       31.1690   31.7471    3.6532 H         1 UNK         0.3038 
    121 H121       31.5345   32.7771    0.8935 H         1 UNK         0.0769 
    122 H122       29.2345   32.6177    1.7491 H         1 UNK         0.0811 
    123 H123       29.4742   31.5125    0.4116 H         1 UNK         0.0811 
    124 H124       29.4278   30.8991    2.0634 H         1 UNK         0.0811 
    125 H125       30.5217   29.5183    0.8376 H         1 UNK         0.3204 
    126 H126       33.0518   28.8368   -0.5012 H         1 UNK         0.0748 
    127 H127       30.4406   27.2684   -0.3016 H         1 UNK         0.0771 
    128 H128       30.8667   28.3818   -1.6083 H         1 UNK         0.0771 
    129 H129       31.7920   26.9213   -1.3660 H         1 UNK         0.0771 
    130 H130       32.0848   28.5649    2.6917 H         1 UNK         0.2980 
    131 H131       32.5562   25.9896    3.5038 H         1 UNK         0.0545 
    132 H132       35.9803   25.1159    3.5476 H         1 UNK         0.3459 
    133 H133       34.3190   24.5906    3.6096 H         1 UNK         0.3459 
    134 H134       33.1686   26.9982    5.7459 H         1 UNK         0.0616 
    135 H135       33.2735   28.5658    4.9974 H         1 UNK         0.0616 
    136 H136       29.7476   26.9541    7.0127 H         1 UNK         0.0634 
    137 H137       31.4144   26.4626    7.1163 H         1 UNK         0.0634 
@<TRIPOS>BOND
     1    1    2 1    
     2    1   72 1    
     3    1   73 1    
     4    1   74 1    
     5    2    3 2    
     6    2    4 am   BACKBONE|DICT|INTERRES
     7    4    5 1    
     8    4   75 1    
     9    5    6 1    
    10    5   35 1    
    11    5   76 1    
    12    6    7 1    
    13    6   77 1    
    14    6   78 1    
    15    7    8 1    
    16    8    9 1    
    17    8   79 1    
    18    8   80 1    
    19    9   10 ar   
    20    9   14 ar   
    21   10   11 ar   
    22   10   81 1    
    23   11   12 ar   
    24   11   71 1    
    25   12   13 ar   
    26   12   82 1    
    27   13   14 ar   
    28   13   15 1    
    29   14   83 1    
    30   15   16 1    
    31   15   84 1    
    32   15   85 1    
    33   16   17 1    
    34   17   18 1    
    35   17   86 1    
    36   17   87 1    
    37   18   19 1    
    38   18   37 1    
    39   18   88 1    
    40   19   20 am   BACKBONE|DICT|INTERRES
    41   19   89 1    
    42   20   21 2    
    43   20   22 1    
    44   22   23 1    
    45   22   24 1    
    46   22   90 1    
    47   23   91 1    
    48   23   92 1    
    49   23   93 1    
    50   24   25 am   BACKBONE|DICT|INTERRES
    51   24   94 1    
    52   25   26 2    
    53   25   27 1    
    54   27   28 1    
    55   27   29 1    
    56   27   95 1    
    57   28   96 1    
    58   28   97 1    
    59   28   98 1    
    60   29   30 am   BACKBONE|DICT|INTERRES
    61   29   99 1    
    62   30   31 2    
    63   30   32 1    
    64   32   33 1    
    65   32   34 1    
    66   32  100 1    
    67   33  101 1    
    68   33  102 1    
    69   33  103 1    
    70   34   35 am   BACKBONE|DICT|INTERRES
    71   34  104 1    
    72   35   36 2    
    73   37   38 2    
    74   37   39 am   BACKBONE|DICT|INTERRES
    75   39   40 1    
    76   39  105 1    
    77   40   41 1    
    78   40   42 1    
    79   40  106 1    
    80   41  107 1    
    81   41  108 1    
    82   41  109 1    
    83   42   43 2    
    84   42   44 am   BACKBONE|DICT|INTERRES
    85   44   45 1    
    86   44  110 1    
    87   45   46 1    
    88   45   47 1    
    89   45  111 1    
    90   46  112 1    
    91   46  113 1    
    92   46  114 1    
    93   47   48 2    
    94   47   49 am   BACKBONE|DICT|INTERRES
    95   49   50 1    
    96   49  115 1    
    97   50   51 1    
    98   50   52 1    
    99   50  116 1    
   100   51  117 1    
   101   51  118 1    
   102   51  119 1    
   103   52   53 2    
   104   52   54 am   BACKBONE|DICT|INTERRES
   105   54   55 1    
   106   54  120 1    
   107   55   56 1    
   108   55   57 1    
   109   55  121 1    
   110   56  122 1    
   111   56  123 1    
   112   56  124 1    
   113   57   58 2    
   114   57   59 am   BACKBONE|DICT|INTERRES
   115   59   60 1    
   116   59  125 1    
   117   60   61 1    
   118   60   62 1    
   119   60  126 1    
   120   61  127 1    
   121   61  128 1    
   122   61  129 1    
   123   62   63 2    
   124   62   64 am   BACKBONE|DICT|INTERRES
   125   64   65 1    
   126   64  130 1    
   127   65   66 1    
   128   65   69 1    
   129   65  131 1    
   130   66   67 am   BACKBONE|DICT|INTERRES
   131   66   68 2    
   132   67  132 1    
   133   67  133 1    
   134   69   70 1    
   135   69  134 1    
   136   69  135 1    
   137   70   71 1    
   138   71  136 1    
   139   71  137 1    
@<TRIPOS>SUBSTRUCTURE
     1 UNK         1 GROUP             0       ****    0 ROOT    
