@<TRIPOS>MOLECULE
3R136
137   139    1
SMALL
USER_CHARGES


@<TRIPOS>ATOM
      1 CA         25.2810   23.5649    5.2251 C.3       0 UNK        -0.1979 
      2 C          26.0183   23.5213    3.8954 C.2       0 UNK         0.4864 
      3 O          25.7214   24.3236    3.0094 O.2       0 UNK        -0.5359 
      4 N          26.9570   22.5736    3.7444 N.am      1 UNK        -0.4318 
      5 CA         27.8559   22.3923    2.5894 C.3       1 UNK         0.0824 
      6 C6         28.9457   23.4960    2.4940 C.3       12 UNK        -0.0944 
      7 S7         29.9605   23.6186    4.0059 S.3       12 UNK        -0.2672 
      8 C8         30.7101   25.2641    3.7970 C.3       12 UNK         0.0333 
      9 C9         31.7568   25.2691    2.6921 C.ar      12 UNK        -0.0807 
     10 C10        33.0801   24.9156    2.9726 C.ar      12 UNK        -0.0894 
     11 C11        34.0455   24.9161    1.9599 C.ar      12 UNK        -0.0804 
     12 C12        33.6745   25.2701    0.6584 C.ar      12 UNK        -0.0824 
     13 C13        32.3499   25.6030    0.3613 C.ar      12 UNK        -0.0762 
     14 C14        31.3978   25.6093    1.3850 C.ar      12 UNK        -0.0782 
     15 C15        31.9365   25.8837   -1.0767 C.3       12 UNK         0.0230 
     16 S16        32.2344   27.6052   -1.5884 S.3       12 UNK        -0.2608 
     17 C17        30.9420   28.5278   -0.6899 C.3       12 UNK        -0.0989 
     18 CA         29.6992   28.8583   -1.5727 C.3       5 UNK         0.0716 
     19 N          28.9730   27.6724   -2.0480 N.am      5 UNK        -0.4135 
     20 C          28.2911   26.8041   -1.2874 C.2       4 UNK         0.5031 
     21 O          28.2662   26.8364   -0.0541 O.2       4 UNK        -0.5229 
     22 CA         27.5447   25.6871   -2.0372 C.3       4 UNK         0.0329 
     23 CB         28.4963   24.5307   -2.3845 C.3       4 UNK        -0.2001 
     24 N          26.4392   25.1701   -1.2291 N.am      4 UNK        -0.4303 
     25 C          25.2547   25.7847   -1.0922 C.2       3 UNK         0.5044 
     26 O          24.9424   26.7927   -1.7296 O.2       3 UNK        -0.5152 
     27 CA         24.2562   25.2087   -0.0642 C.3       3 UNK         0.0319 
     28 CB         22.7841   25.3850   -0.4961 C.3       3 UNK        -0.2001 
     29 N          24.5333   23.8239    0.3345 N.am      3 UNK        -0.4354 
     30 C          24.4815   22.7217   -0.4327 C.2       2 UNK         0.4964 
     31 O          24.1014   22.7224   -1.6046 O.2       2 UNK        -0.5047 
     32 CA         24.9498   21.3966    0.2136 C.3       2 UNK         0.0288 
     33 CB         25.4999   20.3955   -0.8255 C.3       2 UNK        -0.2113 
     34 N          25.9125   21.5766    1.3116 N.am      2 UNK        -0.4145 
     35 C          27.0978   22.2075    1.2523 C.2       1 UNK         0.5006 
     36 O          27.5618   22.6755    0.2112 O.2       1 UNK        -0.5103 
     37 C          28.7062   29.8528   -0.9246 C.2       5 UNK         0.5055 
     38 O          27.7245   30.2270   -1.5705 O.2       5 UNK        -0.5220 
     39 N          28.9675   30.2616    0.3191 N.am      6 UNK        -0.4450 
     40 CA         28.1456   31.1244    1.1566 C.3       6 UNK         0.0367 
     41 CB         28.3276   32.5981    0.7430 C.3       6 UNK        -0.1929 
     42 C          28.5957   30.8939    2.6044 C.2       6 UNK         0.5070 
     43 O          29.6268   30.2523    2.8244 O.2       6 UNK        -0.5237 
     44 N          27.8355   31.4321    3.5669 N.am      7 UNK        -0.4739 
     45 CA         28.2037   31.4278    4.9883 C.3       7 UNK         0.0276 
     46 CB         26.9894   31.8357    5.8380 C.3       7 UNK        -0.1927 
     47 C          29.4071   32.3416    5.2845 C.2       7 UNK         0.5013 
     48 O          30.2278   32.0126    6.1422 O.2       7 UNK        -0.5193 
     49 N          29.5015   33.4593    4.5507 N.am      8 UNK        -0.4253 
     50 CA         30.6550   34.3553    4.5503 C.3       8 UNK         0.0242 
     51 CB         30.2677   35.6878    3.8879 C.3       8 UNK        -0.2000 
     52 C          31.8260   33.6942    3.8081 C.2       8 UNK         0.4948 
     53 O          31.6443   33.2508    2.6724 O.2       8 UNK        -0.5275 
     54 N          32.9925   33.6453    4.4659 N.am      9 UNK        -0.4246 
     55 CA         34.2412   33.0264    3.9992 C.3       9 UNK         0.0261 
     56 CB         34.8025   33.7687    2.7662 C.3       9 UNK        -0.1959 
     57 C          34.1464   31.4986    3.7887 C.2       9 UNK         0.5033 
     58 O          34.8846   30.9507    2.9669 O.2       9 UNK        -0.5390 
     59 N          33.2690   30.8298    4.5518 N.am      10 UNK        -0.4215 
     60 CA         33.1737   29.3693    4.6256 C.3       10 UNK         0.0240 
     61 CB         31.8833   28.9872    5.3695 C.3       10 UNK        -0.1982 
     62 C          34.3941   28.7644    5.3414 C.2       10 UNK         0.4970 
     63 O          35.0074   29.4335    6.1776 O.2       10 UNK        -0.4916 
     64 N          34.7010   27.5003    5.0278 N.am      11 UNK        -0.4279 
     65 CA         35.8269   26.7516    5.6149 C.3       11 UNK         0.1003 
     66 C          35.6734   26.3995    7.1251 C.2       11 UNK         0.5709 
     67 N          34.4887   26.4980    7.7171 N.am      11 UNK        -0.7358 
     68 O          36.6520   26.0321    7.7712 O.2       11 UNK        -0.4999 
     69 C69        36.1761   25.4794    4.7995 C.3       12 UNK        -0.0954 
     70 S70        36.4618   25.8011    3.0250 S.3       12 UNK        -0.2268 
     71 C71        35.4766   24.4818    2.2483 C.3       12 UNK         0.0203 
     72 H72        25.4257   24.5349    5.6999 H         1 UNK         0.0888 
     73 H73        24.2129   23.4184    5.0671 H         1 UNK         0.0888 
     74 H74        25.6319   22.7955    5.9126 H         1 UNK         0.0888 
     75 H75        27.1332   21.9440    4.5154 H         1 UNK         0.3017 
     76 H76        28.3696   21.4442    2.7557 H         1 UNK         0.0873 
     77 H77        29.6248   23.2937    1.6636 H         1 UNK         0.0745 
     78 H78        28.4859   24.4650    2.2888 H         1 UNK         0.0745 
     79 H79        31.1705   25.5590    4.7409 H         1 UNK         0.0705 
     80 H80        29.9325   26.0027    3.5946 H         1 UNK         0.0705 
     81 H81        33.3480   24.6205    3.9768 H         1 UNK         0.1334 
     82 H82        34.4110   25.2574   -0.1338 H         1 UNK         0.1417 
     83 H83        30.3682   25.8536    1.1615 H         1 UNK         0.1562 
     84 H84        30.8881   25.6337   -1.2224 H         1 UNK         0.0748 
     85 H85        32.4918   25.2249   -1.7460 H         1 UNK         0.0748 
     86 H86        31.4213   29.4490   -0.3529 H         1 UNK         0.0940 
     87 H87        30.6562   27.9924    0.2146 H         1 UNK         0.0940 
     88 H88        30.0643   29.3640   -2.4681 H         1 UNK         0.0703 
     89 H89        28.9267   27.5721   -3.0517 H         1 UNK         0.3081 
     90 H90        27.1410   26.0947   -2.9667 H         1 UNK         0.0719 
     91 H91        29.2858   24.8603   -3.0609 H         1 UNK         0.0809 
     92 H92        28.9774   24.1230   -1.4948 H         1 UNK         0.0809 
     93 H93        27.9666   23.7158   -2.8784 H         1 UNK         0.0809 
     94 H94        26.6471   24.3646   -0.6489 H         1 UNK         0.2990 
     95 H95        24.4002   25.8016    0.8402 H         1 UNK         0.0690 
     96 H96        22.5772   24.8921   -1.4463 H         1 UNK         0.0788 
     97 H97        22.5366   26.4400   -0.6198 H         1 UNK         0.0788 
     98 H98        22.1002   24.9798    0.2496 H         1 UNK         0.0788 
     99 H99        24.8965   23.7337    1.2798 H         1 UNK         0.2993 
    100 H100       24.0575   20.9535    0.6587 H         1 UNK         0.0949 
    101 H101       26.3568   20.8021   -1.3638 H         1 UNK         0.0767 
    102 H102       25.8117   19.4641   -0.3528 H         1 UNK         0.0767 
    103 H103       24.7413   20.1412   -1.5669 H         1 UNK         0.0767 
    104 H104       25.6089   21.2459    2.2173 H         1 UNK         0.3013 
    105 H105       29.7538   29.8734    0.8287 H         1 UNK         0.3121 
    106 H106       27.0984   30.8299    1.0615 H         1 UNK         0.0774 
    107 H107       27.7029   33.2584    1.3451 H         1 UNK         0.0815 
    108 H108       29.3619   32.9235    0.8668 H         1 UNK         0.0815 
    109 H109       28.0497   32.7584   -0.2986 H         1 UNK         0.0815 
    110 H110       26.9894   31.9223    3.3121 H         1 UNK         0.2987 
    111 H111       28.4891   30.4103    5.2656 H         1 UNK         0.0949 
    112 H112       26.1544   31.1503    5.6914 H         1 UNK         0.0806 
    113 H113       27.2360   31.8203    6.9007 H         1 UNK         0.0806 
    114 H114       26.6451   32.8425    5.5983 H         1 UNK         0.0806 
    115 H115       28.8035   33.6203    3.8407 H         1 UNK         0.3010 
    116 H116       30.9413   34.5543    5.5856 H         1 UNK         0.0829 
    117 H117       29.4479   36.1721    4.4188 H         1 UNK         0.0813 
    118 H118       31.1093   36.3818    3.8894 H         1 UNK         0.0813 
    119 H119       29.9614   35.5502    2.8499 H         1 UNK         0.0813 
    120 H120       33.0287   34.0389    5.3969 H         1 UNK         0.3038 
    121 H121       34.9593   33.1620    4.8094 H         1 UNK         0.0769 
    122 H122       35.8046   33.4159    2.5194 H         1 UNK         0.0811 
    123 H123       34.1805   33.6166    1.8836 H         1 UNK         0.0811 
    124 H124       34.8744   34.8412    2.9461 H         1 UNK         0.0811 
    125 H125       32.7011   31.3524    5.2037 H         1 UNK         0.3204 
    126 H126       33.1266   28.9748    3.6079 H         1 UNK         0.0748 
    127 H127       31.7572   27.9052    5.4115 H         1 UNK         0.0771 
    128 H128       31.8832   29.3580    6.3956 H         1 UNK         0.0771 
    129 H129       31.0037   29.3930    4.8716 H         1 UNK         0.0771 
    130 H130       34.1656   27.0166    4.3226 H         1 UNK         0.2980 
    131 H131       36.6958   27.4103    5.5580 H         1 UNK         0.0545 
    132 H132       33.6813   26.8044    7.2003 H         1 UNK         0.3459 
    133 H133       34.4068   26.2700    8.6953 H         1 UNK         0.3459 
    134 H134       37.0868   25.0213    5.1900 H         1 UNK         0.0616 
    135 H135       35.3942   24.7298    4.9216 H         1 UNK         0.0616 
    136 H136       35.4804   23.5877    2.8735 H         1 UNK         0.0634 
    137 H137       35.9714   24.1933    1.3196 H         1 UNK         0.0634 
@<TRIPOS>BOND
     1    1    2 1    
     2    1   72 1    
     3    1   73 1    
     4    1   74 1    
     5    2    3 2    
     6    2    4 am   BACKBONE|DICT|INTERRES
     7    4    5 1    
     8    4   75 1    
     9    5    6 1    
    10    5   35 1    
    11    5   76 1    
    12    6    7 1    
    13    6   77 1    
    14    6   78 1    
    15    7    8 1    
    16    8    9 1    
    17    8   79 1    
    18    8   80 1    
    19    9   10 ar   
    20    9   14 ar   
    21   10   11 ar   
    22   10   81 1    
    23   11   12 ar   
    24   11   71 1    
    25   12   13 ar   
    26   12   82 1    
    27   13   14 ar   
    28   13   15 1    
    29   14   83 1    
    30   15   16 1    
    31   15   84 1    
    32   15   85 1    
    33   16   17 1    
    34   17   18 1    
    35   17   86 1    
    36   17   87 1    
    37   18   19 1    
    38   18   37 1    
    39   18   88 1    
    40   19   20 am   BACKBONE|DICT|INTERRES
    41   19   89 1    
    42   20   21 2    
    43   20   22 1    
    44   22   23 1    
    45   22   24 1    
    46   22   90 1    
    47   23   91 1    
    48   23   92 1    
    49   23   93 1    
    50   24   25 am   BACKBONE|DICT|INTERRES
    51   24   94 1    
    52   25   26 2    
    53   25   27 1    
    54   27   28 1    
    55   27   29 1    
    56   27   95 1    
    57   28   96 1    
    58   28   97 1    
    59   28   98 1    
    60   29   30 am   BACKBONE|DICT|INTERRES
    61   29   99 1    
    62   30   31 2    
    63   30   32 1    
    64   32   33 1    
    65   32   34 1    
    66   32  100 1    
    67   33  101 1    
    68   33  102 1    
    69   33  103 1    
    70   34   35 am   BACKBONE|DICT|INTERRES
    71   34  104 1    
    72   35   36 2    
    73   37   38 2    
    74   37   39 am   BACKBONE|DICT|INTERRES
    75   39   40 1    
    76   39  105 1    
    77   40   41 1    
    78   40   42 1    
    79   40  106 1    
    80   41  107 1    
    81   41  108 1    
    82   41  109 1    
    83   42   43 2    
    84   42   44 am   BACKBONE|DICT|INTERRES
    85   44   45 1    
    86   44  110 1    
    87   45   46 1    
    88   45   47 1    
    89   45  111 1    
    90   46  112 1    
    91   46  113 1    
    92   46  114 1    
    93   47   48 2    
    94   47   49 am   BACKBONE|DICT|INTERRES
    95   49   50 1    
    96   49  115 1    
    97   50   51 1    
    98   50   52 1    
    99   50  116 1    
   100   51  117 1    
   101   51  118 1    
   102   51  119 1    
   103   52   53 2    
   104   52   54 am   BACKBONE|DICT|INTERRES
   105   54   55 1    
   106   54  120 1    
   107   55   56 1    
   108   55   57 1    
   109   55  121 1    
   110   56  122 1    
   111   56  123 1    
   112   56  124 1    
   113   57   58 2    
   114   57   59 am   BACKBONE|DICT|INTERRES
   115   59   60 1    
   116   59  125 1    
   117   60   61 1    
   118   60   62 1    
   119   60  126 1    
   120   61  127 1    
   121   61  128 1    
   122   61  129 1    
   123   62   63 2    
   124   62   64 am   BACKBONE|DICT|INTERRES
   125   64   65 1    
   126   64  130 1    
   127   65   66 1    
   128   65   69 1    
   129   65  131 1    
   130   66   67 am   BACKBONE|DICT|INTERRES
   131   66   68 2    
   132   67  132 1    
   133   67  133 1    
   134   69   70 1    
   135   69  134 1    
   136   69  135 1    
   137   70   71 1    
   138   71  136 1    
   139   71  137 1    
@<TRIPOS>SUBSTRUCTURE
     1 UNK         1 GROUP             0       ****    0 ROOT    
