@<TRIPOS>MOLECULE
3R136
137   139    1
SMALL
USER_CHARGES


@<TRIPOS>ATOM
      1 CA         31.6211   20.8231    3.6198 C.3       0 UNK        -0.1979 
      2 C          30.6276   20.3920    2.5505 C.2       0 UNK         0.4864 
      3 O          30.8794   19.4231    1.8328 O.2       0 UNK        -0.5359 
      4 N          29.5067   21.1087    2.4367 N.am      1 UNK        -0.4318 
      5 CA         28.4375   20.8874    1.4647 C.3       1 UNK         0.0824 
      6 C6         28.8121   21.3479    0.0261 C.3       12 UNK        -0.0944 
      7 S7         29.3783   23.0843   -0.0839 S.3       12 UNK        -0.2672 
      8 C8         31.1555   22.8412   -0.3819 C.3       12 UNK         0.0333 
      9 C9         31.9663   24.0942   -0.0849 C.ar      12 UNK        -0.0807 
     10 C10        32.8164   24.1346    1.0258 C.ar      12 UNK        -0.0894 
     11 C11        33.6363   25.2445    1.2515 C.ar      12 UNK        -0.0804 
     12 C12        33.5746   26.3342    0.3777 C.ar      12 UNK        -0.0824 
     13 C13        32.7200   26.3123   -0.7281 C.ar      12 UNK        -0.0762 
     14 C14        31.9199   25.1875   -0.9558 C.ar      12 UNK        -0.0782 
     15 C15        32.7201   27.4702   -1.7170 C.3       12 UNK         0.0230 
     16 S16        31.1139   28.3181   -1.8150 S.3       12 UNK        -0.2608 
     17 C17        31.0717   29.2569   -0.2518 C.3       12 UNK        -0.0989 
     18 CA         29.6765   29.1498    0.4136 C.3       5 UNK         0.0716 
     19 N          29.3739   27.7995    0.8916 N.am      5 UNK        -0.4135 
     20 C          29.8563   27.1968    1.9883 C.2       4 UNK         0.5031 
     21 O          30.7436   27.6710    2.7013 O.2       4 UNK        -0.5229 
     22 CA         29.2151   25.8490    2.3774 C.3       4 UNK         0.0329 
     23 CB         28.9847   25.7460    3.8962 C.3       4 UNK        -0.2001 
     24 N          27.9702   25.5158    1.6660 N.am      4 UNK        -0.4303 
     25 C          26.8102   26.1958    1.6553 C.2       3 UNK         0.5044 
     26 O          26.6410   27.2933    2.1871 O.2       3 UNK        -0.5152 
     27 CA         25.6477   25.5283    0.9152 C.3       3 UNK         0.0319 
     28 CB         25.8505   25.6214   -0.6110 C.3       3 UNK        -0.2001 
     29 N          25.5382   24.1410    1.3609 N.am      3 UNK        -0.4354 
     30 C          24.5531   23.2779    1.0964 C.2       2 UNK         0.4964 
     31 O          23.5705   23.5523    0.4051 O.2       2 UNK        -0.5047 
     32 CA         24.7074   21.8654    1.7053 C.3       2 UNK         0.0288 
     33 CB         23.5958   20.8989    1.2530 C.3       2 UNK        -0.2113 
     34 N          26.0117   21.2605    1.4039 N.am      2 UNK        -0.4145 
     35 C          27.1722   21.5850    1.9906 C.2       1 UNK         0.5006 
     36 O          27.2669   22.4351    2.8829 O.2       1 UNK        -0.5103 
     37 C          29.4330   30.1983    1.5194 C.2       5 UNK         0.5055 
     38 O          30.3278   30.9842    1.8334 O.2       5 UNK        -0.5220 
     39 N          28.2245   30.1766    2.1046 N.am      6 UNK        -0.4450 
     40 CA         27.7776   31.0400    3.2079 C.3       6 UNK         0.0367 
     41 CB         26.3282   30.6795    3.5694 C.3       6 UNK        -0.1929 
     42 C          27.9054   32.5542    2.9548 C.2       6 UNK         0.5070 
     43 O          28.0613   33.3146    3.9097 O.2       6 UNK        -0.5237 
     44 N          27.8541   32.9634    1.6813 N.am      7 UNK        -0.4739 
     45 CA         28.0498   34.3453    1.2382 C.3       7 UNK         0.0276 
     46 CB         27.3888   34.5141   -0.1407 C.3       7 UNK        -0.1927 
     47 C          29.5289   34.7809    1.1830 C.2       7 UNK         0.5013 
     48 O          29.7818   35.9691    0.9766 O.2       7 UNK        -0.5193 
     49 N          30.4725   33.8404    1.3311 N.am      8 UNK        -0.4253 
     50 CA         31.9092   34.0709    1.2092 C.3       8 UNK         0.0242 
     51 CB         32.3760   33.6698   -0.2060 C.3       8 UNK        -0.2000 
     52 C          32.6493   33.3398    2.3380 C.2       8 UNK         0.4948 
     53 O          32.8033   33.9101    3.4185 O.2       8 UNK        -0.5275 
     54 N          33.1181   32.1143    2.0626 N.am      9 UNK        -0.4246 
     55 CA         33.9374   31.2936    2.9584 C.3       9 UNK         0.0261 
     56 CB         34.4345   30.0508    2.2010 C.3       9 UNK        -0.1959 
     57 C          33.2328   30.8753    4.2603 C.2       9 UNK         0.5033 
     58 O          33.8838   30.8710    5.3063 O.2       9 UNK        -0.5390 
     59 N          31.9373   30.5348    4.1663 N.am      10 UNK        -0.4215 
     60 CA         31.0564   30.0635    5.2440 C.3       10 UNK         0.0240 
     61 CB         30.6381   31.2456    6.1422 C.3       10 UNK        -0.1982 
     62 C          31.6497   28.8807    6.0339 C.2       10 UNK         0.4970 
     63 O          31.8658   28.9829    7.2440 O.2       10 UNK        -0.4916 
     64 N          31.9384   27.7957    5.3091 N.am      11 UNK        -0.4279 
     65 CA         32.5764   26.5745    5.8193 C.3       11 UNK         0.1003 
     66 C          31.7181   25.7883    6.8519 C.2       11 UNK         0.5709 
     67 N          32.3355   24.8854    7.6025 N.am      11 UNK        -0.7358 
     68 O          30.5075   25.9656    6.9732 O.2       11 UNK        -0.4999 
     69 C69        33.0467   25.6708    4.6497 C.3       12 UNK        -0.0954 
     70 S70        34.3113   26.5052    3.6392 S.3       12 UNK        -0.2268 
     71 C71        34.6532   25.2370    2.3848 C.3       12 UNK         0.0203 
     72 H72        32.6004   20.9957    3.1740 H         1 UNK         0.0888 
     73 H73        31.3105   21.7419    4.1177 H         1 UNK         0.0888 
     74 H74        31.7221   20.0438    4.3747 H         1 UNK         0.0888 
     75 H75        29.3077   21.8721    3.0724 H         1 UNK         0.3017 
     76 H76        28.2205   19.8171    1.4442 H         1 UNK         0.0873 
     77 H77        27.9655   21.2247   -0.6514 H         1 UNK         0.0745 
     78 H78        29.5864   20.6910   -0.3729 H         1 UNK         0.0745 
     79 H79        31.5170   22.0113    0.2260 H         1 UNK         0.0705 
     80 H80        31.3057   22.5450   -1.4211 H         1 UNK         0.0705 
     81 H81        32.8722   23.2837    1.6908 H         1 UNK         0.1334 
     82 H82        34.2181   27.1867    0.5468 H         1 UNK         0.1417 
     83 H83        31.2737   25.1558   -1.8227 H         1 UNK         0.1562 
     84 H84        32.9695   27.0837   -2.7062 H         1 UNK         0.0748 
     85 H85        33.4948   28.1989   -1.4724 H         1 UNK         0.0748 
     86 H86        31.3145   30.2929   -0.4922 H         1 UNK         0.0940 
     87 H87        31.8484   28.9039    0.4275 H         1 UNK         0.0940 
     88 H88        28.9313   29.3737   -0.3516 H         1 UNK         0.0703 
     89 H89        28.6589   27.3073    0.3784 H         1 UNK         0.3081 
     90 H90        29.9432   25.0854    2.1012 H         1 UNK         0.0719 
     91 H91        29.9231   25.8441    4.4360 H         1 UNK         0.0809 
     92 H92        28.3188   26.5287    4.2606 H         1 UNK         0.0809 
     93 H93        28.5560   24.7820    4.1704 H         1 UNK         0.0809 
     94 H94        28.0190   24.6586    1.1292 H         1 UNK         0.2990 
     95 H95        24.7286   26.0517    1.1866 H         1 UNK         0.0690 
     96 H96        24.9778   25.2582   -1.1536 H         1 UNK         0.0788 
     97 H97        26.7122   25.0410   -0.9432 H         1 UNK         0.0788 
     98 H98        26.0099   26.6547   -0.9220 H         1 UNK         0.0788 
     99 H99        26.2693   23.8185    1.9910 H         1 UNK         0.2993 
    100 H100       24.6223   21.9807    2.7883 H         1 UNK         0.0949 
    101 H101       23.6951   19.9262    1.7354 H         1 UNK         0.0767 
    102 H102       22.6096   21.2861    1.5133 H         1 UNK         0.0767 
    103 H103       23.6112   20.7424    0.1736 H         1 UNK         0.0767 
    104 H104       26.0210   20.5808    0.6568 H         1 UNK         0.3013 
    105 H105       27.5770   29.4489    1.8275 H         1 UNK         0.3121 
    106 H106       28.3993   30.8159    4.0729 H         1 UNK         0.0774 
    107 H107       25.9711   31.2825    4.4056 H         1 UNK         0.0815 
    108 H108       25.6500   30.8479    2.7320 H         1 UNK         0.0815 
    109 H109       26.2416   29.6339    3.8665 H         1 UNK         0.0815 
    110 H110       27.7150   32.2689    0.9619 H         1 UNK         0.2987 
    111 H111       27.5458   35.0124    1.9413 H         1 UNK         0.0949 
    112 H112       27.8560   33.8776   -0.8933 H         1 UNK         0.0806 
    113 H113       26.3268   34.2707   -0.1050 H         1 UNK         0.0806 
    114 H114       27.4698   35.5443   -0.4907 H         1 UNK         0.0806 
    115 H115       30.1977   32.8870    1.5534 H         1 UNK         0.3010 
    116 H116       32.1319   35.1318    1.3439 H         1 UNK         0.0829 
    117 H117       31.9447   34.3317   -0.9572 H         1 UNK         0.0813 
    118 H118       33.4604   33.7440   -0.3007 H         1 UNK         0.0813 
    119 H119       32.0850   32.6517   -0.4651 H         1 UNK         0.0813 
    120 H120       32.9065   31.7212    1.1580 H         1 UNK         0.3038 
    121 H121       34.8083   31.8916    3.2351 H         1 UNK         0.0769 
    122 H122       35.1187   29.4696    2.8208 H         1 UNK         0.0811 
    123 H123       34.9731   30.3210    1.2927 H         1 UNK         0.0811 
    124 H124       33.6124   29.3896    1.9259 H         1 UNK         0.0811 
    125 H125       31.5000   30.6032    3.2493 H         1 UNK         0.3204 
    126 H126       30.1631   29.6708    4.7598 H         1 UNK         0.0748 
    127 H127       29.9216   30.9270    6.9002 H         1 UNK         0.0771 
    128 H128       31.4937   31.6793    6.6609 H         1 UNK         0.0771 
    129 H129       30.1658   32.0370    5.5598 H         1 UNK         0.0771 
    130 H130       31.6844   27.7850    4.3235 H         1 UNK         0.2980 
    131 H131       33.4646   26.9022    6.3633 H         1 UNK         0.0545 
    132 H132       33.3272   24.7251    7.5186 H         1 UNK         0.3459 
    133 H133       31.7984   24.3602    8.2744 H         1 UNK         0.3459 
    134 H134       32.2094   25.3904    4.0088 H         1 UNK         0.0616 
    135 H135       33.4797   24.7412    5.0228 H         1 UNK         0.0616 
    136 H136       34.7077   24.2572    2.8616 H         1 UNK         0.0634 
    137 H137       35.6426   25.4255    1.9660 H         1 UNK         0.0634 
@<TRIPOS>BOND
     1    1    2 1    
     2    1   72 1    
     3    1   73 1    
     4    1   74 1    
     5    2    3 2    
     6    2    4 am   BACKBONE|DICT|INTERRES
     7    4    5 1    
     8    4   75 1    
     9    5    6 1    
    10    5   35 1    
    11    5   76 1    
    12    6    7 1    
    13    6   77 1    
    14    6   78 1    
    15    7    8 1    
    16    8    9 1    
    17    8   79 1    
    18    8   80 1    
    19    9   10 ar   
    20    9   14 ar   
    21   10   11 ar   
    22   10   81 1    
    23   11   12 ar   
    24   11   71 1    
    25   12   13 ar   
    26   12   82 1    
    27   13   14 ar   
    28   13   15 1    
    29   14   83 1    
    30   15   16 1    
    31   15   84 1    
    32   15   85 1    
    33   16   17 1    
    34   17   18 1    
    35   17   86 1    
    36   17   87 1    
    37   18   19 1    
    38   18   37 1    
    39   18   88 1    
    40   19   20 am   BACKBONE|DICT|INTERRES
    41   19   89 1    
    42   20   21 2    
    43   20   22 1    
    44   22   23 1    
    45   22   24 1    
    46   22   90 1    
    47   23   91 1    
    48   23   92 1    
    49   23   93 1    
    50   24   25 am   BACKBONE|DICT|INTERRES
    51   24   94 1    
    52   25   26 2    
    53   25   27 1    
    54   27   28 1    
    55   27   29 1    
    56   27   95 1    
    57   28   96 1    
    58   28   97 1    
    59   28   98 1    
    60   29   30 am   BACKBONE|DICT|INTERRES
    61   29   99 1    
    62   30   31 2    
    63   30   32 1    
    64   32   33 1    
    65   32   34 1    
    66   32  100 1    
    67   33  101 1    
    68   33  102 1    
    69   33  103 1    
    70   34   35 am   BACKBONE|DICT|INTERRES
    71   34  104 1    
    72   35   36 2    
    73   37   38 2    
    74   37   39 am   BACKBONE|DICT|INTERRES
    75   39   40 1    
    76   39  105 1    
    77   40   41 1    
    78   40   42 1    
    79   40  106 1    
    80   41  107 1    
    81   41  108 1    
    82   41  109 1    
    83   42   43 2    
    84   42   44 am   BACKBONE|DICT|INTERRES
    85   44   45 1    
    86   44  110 1    
    87   45   46 1    
    88   45   47 1    
    89   45  111 1    
    90   46  112 1    
    91   46  113 1    
    92   46  114 1    
    93   47   48 2    
    94   47   49 am   BACKBONE|DICT|INTERRES
    95   49   50 1    
    96   49  115 1    
    97   50   51 1    
    98   50   52 1    
    99   50  116 1    
   100   51  117 1    
   101   51  118 1    
   102   51  119 1    
   103   52   53 2    
   104   52   54 am   BACKBONE|DICT|INTERRES
   105   54   55 1    
   106   54  120 1    
   107   55   56 1    
   108   55   57 1    
   109   55  121 1    
   110   56  122 1    
   111   56  123 1    
   112   56  124 1    
   113   57   58 2    
   114   57   59 am   BACKBONE|DICT|INTERRES
   115   59   60 1    
   116   59  125 1    
   117   60   61 1    
   118   60   62 1    
   119   60  126 1    
   120   61  127 1    
   121   61  128 1    
   122   61  129 1    
   123   62   63 2    
   124   62   64 am   BACKBONE|DICT|INTERRES
   125   64   65 1    
   126   64  130 1    
   127   65   66 1    
   128   65   69 1    
   129   65  131 1    
   130   66   67 am   BACKBONE|DICT|INTERRES
   131   66   68 2    
   132   67  132 1    
   133   67  133 1    
   134   69   70 1    
   135   69  134 1    
   136   69  135 1    
   137   70   71 1    
   138   71  136 1    
   139   71  137 1    
@<TRIPOS>SUBSTRUCTURE
     1 UNK         1 GROUP             0       ****    0 ROOT    
