@<TRIPOS>MOLECULE
3R136
137   139    1
SMALL
USER_CHARGES


@<TRIPOS>ATOM
      1 CA         30.9911   21.9083   -3.9748 C.3       0 UNK        -0.1979 
      2 C          30.4088   23.0358   -3.1353 C.2       0 UNK         0.4864 
      3 O          29.5818   23.8022   -3.6303 O.2       0 UNK        -0.5359 
      4 N          30.8392   23.1453   -1.8714 N.am      1 UNK        -0.4318 
      5 CA         30.3605   24.1419   -0.9055 C.3       1 UNK         0.0824 
      6 C6         31.3431   24.2998    0.2835 C.3       12 UNK        -0.0944 
      7 S7         31.5702   22.7582    1.2443 S.3       12 UNK        -0.2672 
      8 C8         31.9869   23.3853    2.9020 C.3       12 UNK         0.0333 
      9 C9         30.9184   24.2782    3.5280 C.ar      12 UNK        -0.0807 
     10 C10        31.3009   25.4971    4.0931 C.ar      12 UNK        -0.0894 
     11 C11        30.3697   26.3051    4.7480 C.ar      12 UNK        -0.0804 
     12 C12        29.0363   25.8963    4.8237 C.ar      12 UNK        -0.0824 
     13 C13        28.6303   24.6877    4.2473 C.ar      12 UNK        -0.0762 
     14 C14        29.5767   23.8808    3.6019 C.ar      12 UNK        -0.0782 
     15 C15        27.1816   24.2311    4.3756 C.3       12 UNK         0.0230 
     16 S16        26.1609   24.6889    2.9368 S.3       12 UNK        -0.2608 
     17 C17        26.0630   26.5098    3.0775 C.3       12 UNK        -0.0989 
     18 CA         26.9365   27.2080    2.0021 C.3       5 UNK         0.0716 
     19 N          26.4962   26.8810    0.6380 N.am      5 UNK        -0.4135 
     20 C          25.4397   27.3774   -0.0275 C.2       4 UNK         0.5031 
     21 O          24.7048   28.2735    0.3894 O.2       4 UNK        -0.5229 
     22 CA         25.1282   26.7308   -1.3864 C.3       4 UNK         0.0329 
     23 CB         26.2837   26.9119   -2.3865 C.3       4 UNK        -0.2001 
     24 N          24.8221   25.3103   -1.2274 N.am      4 UNK        -0.4303 
     25 C          23.7177   24.8194   -0.6485 C.2       3 UNK         0.5044 
     26 O          22.7605   25.5148   -0.3069 O.2       3 UNK        -0.5152 
     27 CA         23.6662   23.3041   -0.3726 C.3       3 UNK         0.0319 
     28 CB         23.0692   22.5326   -1.5663 C.3       3 UNK        -0.2001 
     29 N          24.9454   22.7318    0.0750 N.am      3 UNK        -0.4354 
     30 C          26.0773   22.5694   -0.6226 C.2       2 UNK         0.4964 
     31 O          26.1915   22.8174   -1.8250 O.2       2 UNK        -0.5047 
     32 CA         27.2874   22.0580    0.1737 C.3       2 UNK         0.0288 
     33 CB         27.3261   20.5215    0.1694 C.3       2 UNK        -0.2113 
     34 N          28.5611   22.5665   -0.3363 N.am      2 UNK        -0.4145 
     35 C          28.9244   23.8568   -0.4143 C.2       1 UNK         0.5006 
     36 O          28.1969   24.8011   -0.1035 O.2       1 UNK        -0.5103 
     37 C          27.0877   28.7307    2.2201 C.2       5 UNK         0.5055 
     38 O          26.5222   29.2887    3.1623 O.2       5 UNK        -0.5220 
     39 N          27.8256   29.3752    1.3034 N.am      6 UNK        -0.4450 
     40 CA         27.9615   30.8316    1.1833 C.3       6 UNK         0.0367 
     41 CB         28.6331   31.1535   -0.1625 C.3       6 UNK        -0.1929 
     42 C          28.7167   31.5238    2.3341 C.2       6 UNK         0.5070 
     43 O          28.6173   32.7457    2.4542 O.2       6 UNK        -0.5237 
     44 N          29.4549   30.7492    3.1419 N.am      7 UNK        -0.4739 
     45 CA         30.3095   31.1963    4.2465 C.3       7 UNK         0.0276 
     46 CB         29.4783   31.8371    5.3819 C.3       7 UNK        -0.1927 
     47 C          31.4903   32.0461    3.7439 C.2       7 UNK         0.5013 
     48 O          32.1010   31.6770    2.7370 O.2       7 UNK        -0.5193 
     49 N          31.8354   33.1196    4.4710 N.am      8 UNK        -0.4253 
     50 CA         33.0104   33.9726    4.2563 C.3       8 UNK         0.0242 
     51 CB         32.8326   34.8364    2.9858 C.3       8 UNK        -0.2000 
     52 C          34.2950   33.1228    4.2788 C.2       8 UNK         0.4948 
     53 O          34.5271   32.4272    5.2686 O.2       8 UNK        -0.5275 
     54 N          35.0649   33.1230    3.1834 N.am      9 UNK        -0.4246 
     55 CA         36.2830   32.3263    3.0053 C.3       9 UNK         0.0261 
     56 CB         36.9216   32.6845    1.6532 C.3       9 UNK        -0.1959 
     57 C          36.0895   30.7994    3.1195 C.2       9 UNK         0.5033 
     58 O          37.0695   30.1017    3.3850 O.2       9 UNK        -0.5390 
     59 N          34.8584   30.2990    2.9276 N.am      10 UNK        -0.4215 
     60 CA         34.5332   28.8756    3.0488 C.3       10 UNK         0.0240 
     61 CB         33.2427   28.5703    2.2682 C.3       10 UNK        -0.1982 
     62 C          34.4177   28.3835    4.5044 C.2       10 UNK         0.4970 
     63 O          34.5441   27.1770    4.7152 O.2       10 UNK        -0.4916 
     64 N          34.1692   29.2866    5.4659 N.am      11 UNK        -0.4279 
     65 CA         33.9773   28.9531    6.8908 C.3       11 UNK         0.1003 
     66 C          34.8045   29.8331    7.8697 C.2       11 UNK         0.5709 
     67 N          35.3417   30.9795    7.4757 N.am      11 UNK        -0.7358 
     68 O          34.9886   29.4484    9.0222 O.2       11 UNK        -0.4999 
     69 C69        32.4696   28.9157    7.2812 C.3       12 UNK        -0.0954 
     70 S70        31.7050   27.2944    6.9444 S.3       12 UNK        -0.2268 
     71 C71        30.8223   27.6062    5.3882 C.3       12 UNK         0.0203 
     72 H72        31.4936   22.3149   -4.8521 H         1 UNK         0.0888 
     73 H73        30.1962   21.2447   -4.3140 H         1 UNK         0.0888 
     74 H74        31.7136   21.3140   -3.4157 H         1 UNK         0.0888 
     75 H75        31.5308   22.4982   -1.5184 H         1 UNK         0.3017 
     76 H76        30.3220   25.1033   -1.4228 H         1 UNK         0.0873 
     77 H77        32.3199   24.6188   -0.0830 H         1 UNK         0.0745 
     78 H78        31.0015   25.1013    0.9409 H         1 UNK         0.0745 
     79 H79        32.1556   22.5338    3.5623 H         1 UNK         0.0705 
     80 H80        32.9402   23.9122    2.8347 H         1 UNK         0.0705 
     81 H81        32.3364   25.8073    4.0566 H         1 UNK         0.1334 
     82 H82        28.3185   26.5127    5.3468 H         1 UNK         0.1417 
     83 H83        29.2736   22.9356    3.1723 H         1 UNK         0.1562 
     84 H84        26.7314   24.6374    5.2828 H         1 UNK         0.0748 
     85 H85        27.1522   23.1464    4.4890 H         1 UNK         0.0748 
     86 H86        26.3580   26.8100    4.0833 H         1 UNK         0.0940 
     87 H87        25.0192   26.8112    2.9719 H         1 UNK         0.0940 
     88 H88        27.9461   26.8031    2.0931 H         1 UNK         0.0703 
     89 H89        27.0252   26.1216    0.2099 H         1 UNK         0.3081 
     90 H90        24.2469   27.2264   -1.7993 H         1 UNK         0.0719 
     91 H91        27.1832   26.3767   -2.0811 H         1 UNK         0.0809 
     92 H92        26.0055   26.5496   -3.3763 H         1 UNK         0.0809 
     93 H93        26.5480   27.9651   -2.4908 H         1 UNK         0.0809 
     94 H94        25.5392   24.6446   -1.4987 H         1 UNK         0.2990 
     95 H95        22.9849   23.1699    0.4694 H         1 UNK         0.0690 
     96 H96        22.9972   21.4660   -1.3536 H         1 UNK         0.0788 
     97 H97        23.6607   22.6554   -2.4738 H         1 UNK         0.0788 
     98 H98        22.0623   22.8875   -1.7901 H         1 UNK         0.0788 
     99 H99        24.9797   22.5206    1.0634 H         1 UNK         0.2993 
    100 H100       27.1954   22.4041    1.2051 H         1 UNK         0.0949 
    101 H101       26.4032   20.1042    0.5748 H         1 UNK         0.0767 
    102 H102       27.4470   20.1254   -0.8399 H         1 UNK         0.0767 
    103 H103       28.1460   20.1428    0.7804 H         1 UNK         0.0767 
    104 H104       29.2328   21.8761   -0.6347 H         1 UNK         0.3013 
    105 H105       28.2467   28.8264    0.5676 H         1 UNK         0.3121 
    106 H106       26.9538   31.2526    1.1693 H         1 UNK         0.0774 
    107 H107       28.0601   30.7552   -1.0001 H         1 UNK         0.0815 
    108 H108       29.6427   30.7439   -0.2168 H         1 UNK         0.0815 
    109 H109       28.7122   32.2313   -0.3122 H         1 UNK         0.0815 
    110 H110       29.4902   29.7642    2.9251 H         1 UNK         0.2987 
    111 H111       30.7692   30.3007    4.6557 H         1 UNK         0.0949 
    112 H112       29.0559   32.7998    5.0916 H         1 UNK         0.0806 
    113 H113       28.6500   31.1896    5.6705 H         1 UNK         0.0806 
    114 H114       30.0809   31.9931    6.2775 H         1 UNK         0.0806 
    115 H115       31.2908   33.3258    5.2964 H         1 UNK         0.3010 
    116 H116       33.0747   34.6455    5.1127 H         1 UNK         0.0829 
    117 H117       31.9284   35.4416    3.0534 H         1 UNK         0.0813 
    118 H118       33.6660   35.5283    2.8568 H         1 UNK         0.0813 
    119 H119       32.7516   34.2343    2.0800 H         1 UNK         0.0813 
    120 H120       34.7777   33.6931    2.4010 H         1 UNK         0.3038 
    121 H121       36.9765   32.6168    3.7972 H         1 UNK         0.0769 
    122 H122       36.2610   32.4446    0.8190 H         1 UNK         0.0811 
    123 H123       37.8509   32.1334    1.5012 H         1 UNK         0.0811 
    124 H124       37.1655   33.7456    1.5964 H         1 UNK         0.0811 
    125 H125       34.0892   30.9298    2.7233 H         1 UNK         0.3204 
    126 H126       35.3382   28.3033    2.5823 H         1 UNK         0.0748 
    127 H127       33.3290   28.8739    1.2247 H         1 UNK         0.0771 
    128 H128       33.0256   27.5013    2.2753 H         1 UNK         0.0771 
    129 H129       32.3782   29.0789    2.6926 H         1 UNK         0.0771 
    130 H130       34.1425   30.2703    5.2300 H         1 UNK         0.2980 
    131 H131       34.3885   27.9572    7.0678 H         1 UNK         0.0545 
    132 H132       35.8849   31.5059    8.1406 H         1 UNK         0.3459 
    133 H133       35.1283   31.3975    6.5730 H         1 UNK         0.3459 
    134 H134       32.3327   29.0883    8.3505 H         1 UNK         0.0616 
    135 H135       31.9137   29.7117    6.7839 H         1 UNK         0.0616 
    136 H136       31.4818   28.1284    4.6975 H         1 UNK         0.0634 
    137 H137       29.9713   28.2611    5.5807 H         1 UNK         0.0634 
@<TRIPOS>BOND
     1    1    2 1    
     2    1   72 1    
     3    1   73 1    
     4    1   74 1    
     5    2    3 2    
     6    2    4 am   BACKBONE|DICT|INTERRES
     7    4    5 1    
     8    4   75 1    
     9    5    6 1    
    10    5   35 1    
    11    5   76 1    
    12    6    7 1    
    13    6   77 1    
    14    6   78 1    
    15    7    8 1    
    16    8    9 1    
    17    8   79 1    
    18    8   80 1    
    19    9   10 ar   
    20    9   14 ar   
    21   10   11 ar   
    22   10   81 1    
    23   11   12 ar   
    24   11   71 1    
    25   12   13 ar   
    26   12   82 1    
    27   13   14 ar   
    28   13   15 1    
    29   14   83 1    
    30   15   16 1    
    31   15   84 1    
    32   15   85 1    
    33   16   17 1    
    34   17   18 1    
    35   17   86 1    
    36   17   87 1    
    37   18   19 1    
    38   18   37 1    
    39   18   88 1    
    40   19   20 am   BACKBONE|DICT|INTERRES
    41   19   89 1    
    42   20   21 2    
    43   20   22 1    
    44   22   23 1    
    45   22   24 1    
    46   22   90 1    
    47   23   91 1    
    48   23   92 1    
    49   23   93 1    
    50   24   25 am   BACKBONE|DICT|INTERRES
    51   24   94 1    
    52   25   26 2    
    53   25   27 1    
    54   27   28 1    
    55   27   29 1    
    56   27   95 1    
    57   28   96 1    
    58   28   97 1    
    59   28   98 1    
    60   29   30 am   BACKBONE|DICT|INTERRES
    61   29   99 1    
    62   30   31 2    
    63   30   32 1    
    64   32   33 1    
    65   32   34 1    
    66   32  100 1    
    67   33  101 1    
    68   33  102 1    
    69   33  103 1    
    70   34   35 am   BACKBONE|DICT|INTERRES
    71   34  104 1    
    72   35   36 2    
    73   37   38 2    
    74   37   39 am   BACKBONE|DICT|INTERRES
    75   39   40 1    
    76   39  105 1    
    77   40   41 1    
    78   40   42 1    
    79   40  106 1    
    80   41  107 1    
    81   41  108 1    
    82   41  109 1    
    83   42   43 2    
    84   42   44 am   BACKBONE|DICT|INTERRES
    85   44   45 1    
    86   44  110 1    
    87   45   46 1    
    88   45   47 1    
    89   45  111 1    
    90   46  112 1    
    91   46  113 1    
    92   46  114 1    
    93   47   48 2    
    94   47   49 am   BACKBONE|DICT|INTERRES
    95   49   50 1    
    96   49  115 1    
    97   50   51 1    
    98   50   52 1    
    99   50  116 1    
   100   51  117 1    
   101   51  118 1    
   102   51  119 1    
   103   52   53 2    
   104   52   54 am   BACKBONE|DICT|INTERRES
   105   54   55 1    
   106   54  120 1    
   107   55   56 1    
   108   55   57 1    
   109   55  121 1    
   110   56  122 1    
   111   56  123 1    
   112   56  124 1    
   113   57   58 2    
   114   57   59 am   BACKBONE|DICT|INTERRES
   115   59   60 1    
   116   59  125 1    
   117   60   61 1    
   118   60   62 1    
   119   60  126 1    
   120   61  127 1    
   121   61  128 1    
   122   61  129 1    
   123   62   63 2    
   124   62   64 am   BACKBONE|DICT|INTERRES
   125   64   65 1    
   126   64  130 1    
   127   65   66 1    
   128   65   69 1    
   129   65  131 1    
   130   66   67 am   BACKBONE|DICT|INTERRES
   131   66   68 2    
   132   67  132 1    
   133   67  133 1    
   134   69   70 1    
   135   69  134 1    
   136   69  135 1    
   137   70   71 1    
   138   71  136 1    
   139   71  137 1    
@<TRIPOS>SUBSTRUCTURE
     1 UNK         1 GROUP             0       ****    0 ROOT    
