@<TRIPOS>MOLECULE
3R136
137   139    1
SMALL
USER_CHARGES


@<TRIPOS>ATOM
      1 CA         30.3419   22.2143    3.7142 C.3       0 UNK        -0.1979 
      2 C          29.9656   21.8970    2.2750 C.2       0 UNK         0.4864 
      3 O          29.7238   20.7356    1.9449 O.2       0 UNK        -0.5359 
      4 N          29.9218   22.9250    1.4174 N.am      1 UNK        -0.4318 
      5 CA         29.6223   22.8314   -0.0185 C.3       1 UNK         0.0824 
      6 C6         29.9244   24.1488   -0.7805 C.3       12 UNK        -0.0944 
      7 S7         31.5365   24.9011   -0.3659 S.3       12 UNK        -0.2672 
      8 C8         31.0221   26.4302    0.4838 C.3       12 UNK         0.0333 
      9 C9         30.5560   26.1704    1.9107 C.ar      12 UNK        -0.0807 
     10 C10        31.4661   26.2477    2.9673 C.ar      12 UNK        -0.0894 
     11 C11        31.0474   26.0489    4.2905 C.ar      12 UNK        -0.0804 
     12 C12        29.7006   25.7622    4.5359 C.ar      12 UNK        -0.0824 
     13 C13        28.7743   25.6786    3.4921 C.ar      12 UNK        -0.0762 
     14 C14        29.2155   25.8827    2.1800 C.ar      12 UNK        -0.0782 
     15 C15        27.3191   25.3387    3.8212 C.3       12 UNK         0.0230 
     16 S16        26.0766   25.9871    2.6485 S.3       12 UNK        -0.2608 
     17 C17        26.2274   27.7946    2.8836 C.3       12 UNK        -0.0989 
     18 CA         26.8435   28.5079    1.6489 C.3       5 UNK         0.0716 
     19 N          26.0502   28.3105    0.4283 N.am      5 UNK        -0.4135 
     20 C          26.4233   27.5379   -0.5973 C.2       4 UNK         0.5031 
     21 O          27.5169   26.9741   -0.6809 O.2       4 UNK        -0.5229 
     22 CA         25.4099   27.3459   -1.7266 C.3       4 UNK         0.0329 
     23 CB         25.7262   28.2605   -2.9235 C.3       4 UNK        -0.2001 
     24 N          25.4879   25.9438   -2.1148 N.am      4 UNK        -0.4303 
     25 C          24.5379   25.2353   -2.7314 C.2       3 UNK         0.5044 
     26 O          23.4880   25.7148   -3.1617 O.2       3 UNK        -0.5152 
     27 CA         24.7961   23.7237   -2.8664 C.3       3 UNK         0.0319 
     28 CB         25.6249   23.4264   -4.1262 C.3       3 UNK        -0.2001 
     29 N          25.4647   23.1407   -1.6971 N.am      3 UNK        -0.4354 
     30 C          24.9483   23.0666   -0.4629 C.2       2 UNK         0.4964 
     31 O          23.8268   23.4828   -0.1713 O.2       2 UNK        -0.5047 
     32 CA         25.8058   22.4186    0.6422 C.3       2 UNK         0.0288 
     33 CB         25.5681   20.8969    0.6989 C.3       2 UNK        -0.2113 
     34 N          27.2440   22.7287    0.6071 N.am      2 UNK        -0.4145 
     35 C          28.1698   22.3935   -0.3067 C.2       1 UNK         0.5006 
     36 O          27.9189   21.7928   -1.3528 O.2       1 UNK        -0.5103 
     37 C          27.1332   30.0009    1.8963 C.2       5 UNK         0.5055 
     38 O          27.4247   30.3863    3.0281 O.2       5 UNK        -0.5220 
     39 N          27.1088   30.8214    0.8349 N.am      6 UNK        -0.4450 
     40 CA         27.5251   32.2294    0.8739 C.3       6 UNK         0.0367 
     41 CB         27.1053   32.9215   -0.4328 C.3       6 UNK        -0.1929 
     42 C          29.0391   32.3980    1.1115 C.2       6 UNK         0.5070 
     43 O          29.4593   33.4052    1.6800 O.2       6 UNK        -0.5237 
     44 N          29.8252   31.3979    0.6904 N.am      7 UNK        -0.4739 
     45 CA         31.2797   31.3338    0.8468 C.3       7 UNK         0.0276 
     46 CB         31.8592   30.5133   -0.3190 C.3       7 UNK        -0.1927 
     47 C          31.7323   30.7491    2.1988 C.2       7 UNK         0.5013 
     48 O          32.9385   30.6156    2.4067 O.2       7 UNK        -0.5193 
     49 N          30.7922   30.4069    3.0960 N.am      8 UNK        -0.4253 
     50 CA         31.0435   29.7160    4.3696 C.3       8 UNK         0.0242 
     51 CB         29.7106   29.4002    5.0638 C.3       8 UNK        -0.2000 
     52 C          32.0102   30.4183    5.3393 C.2       8 UNK         0.4948 
     53 O          32.5988   29.7458    6.1857 O.2       8 UNK        -0.5275 
     54 N          32.2159   31.7321    5.1697 N.am      9 UNK        -0.4246 
     55 CA         33.2502   32.5139    5.8544 C.3       9 UNK         0.0261 
     56 CB         33.1228   33.9898    5.4445 C.3       9 UNK        -0.1959 
     57 C          34.6852   32.0060    5.6009 C.2       9 UNK         0.5033 
     58 O          35.5470   32.2016    6.4593 O.2       9 UNK        -0.5390 
     59 N          34.9168   31.3349    4.4605 N.am      10 UNK        -0.4215 
     60 CA         36.1893   30.6949    4.1161 C.3       10 UNK         0.0240 
     61 CB         36.1753   30.2994    2.6303 C.3       10 UNK        -0.1982 
     62 C          36.5284   29.4724    4.9904 C.2       10 UNK         0.4970 
     63 O          37.7019   29.1027    5.0533 O.2       10 UNK        -0.4916 
     64 N          35.5254   28.8687    5.6452 N.am      11 UNK        -0.4279 
     65 CA         35.7056   27.7382    6.5711 C.3       11 UNK         0.1003 
     66 C          36.2613   28.1468    7.9679 C.2       11 UNK         0.5709 
     67 N          36.3711   29.4292    8.2996 N.am      11 UNK        -0.7358 
     68 O          36.6120   27.2795    8.7649 O.2       11 UNK        -0.4999 
     69 C69        34.4185   26.8820    6.7130 C.3       12 UNK        -0.0954 
     70 S70        33.7672   26.2946    5.1121 S.3       12 UNK        -0.2268 
     71 C71        31.9837   26.1867    5.4940 C.3       12 UNK         0.0203 
     72 H72        30.9638   21.4217    4.1276 H         1 UNK         0.0888 
     73 H73        30.9009   23.1461    3.7854 H         1 UNK         0.0888 
     74 H74        29.4467   22.3021    4.3276 H         1 UNK         0.0888 
     75 H75        30.1712   23.8504    1.7429 H         1 UNK         0.3017 
     76 H76        30.2738   22.0548   -0.4251 H         1 UNK         0.0873 
     77 H77        29.1363   24.8842   -0.6193 H         1 UNK         0.0745 
     78 H78        29.9215   23.9582   -1.8554 H         1 UNK         0.0745 
     79 H79        31.8690   27.1181    0.4960 H         1 UNK         0.0705 
     80 H80        30.2402   26.9314   -0.0891 H         1 UNK         0.0705 
     81 H81        32.4961   26.4872    2.7455 H         1 UNK         0.1334 
     82 H82        29.3690   25.6113    5.5546 H         1 UNK         0.1417 
     83 H83        28.5136   25.8222    1.3618 H         1 UNK         0.1562 
     84 H84        27.0659   25.7006    4.8191 H         1 UNK         0.0748 
     85 H85        27.2224   24.2530    3.8572 H         1 UNK         0.0748 
     86 H86        26.8250   27.9801    3.7780 H         1 UNK         0.0940 
     87 H87        25.2359   28.1966    3.0983 H         1 UNK         0.0940 
     88 H88        27.8396   28.0918    1.5027 H         1 UNK         0.0703 
     89 H89        25.1336   28.7364    0.4200 H         1 UNK         0.3081 
     90 H90        24.4059   27.5585   -1.3528 H         1 UNK         0.0719 
     91 H91        25.0100   28.1185   -3.7329 H         1 UNK         0.0809 
     92 H92        26.7232   28.0692   -3.3227 H         1 UNK         0.0809 
     93 H93        25.6839   29.3115   -2.6355 H         1 UNK         0.0809 
     94 H94        26.3182   25.4719   -1.7792 H         1 UNK         0.2990 
     95 H95        23.8264   23.2326   -2.9719 H         1 UNK         0.0690 
     96 H96        25.7384   22.3532   -4.2817 H         1 UNK         0.0788 
     97 H97        26.6225   23.8636   -4.0665 H         1 UNK         0.0788 
     98 H98        25.1422   23.8328   -5.0162 H         1 UNK         0.0788 
     99 H99        26.3788   22.7185   -1.8411 H         1 UNK         0.2993 
    100 H100       25.4466   22.8373    1.5841 H         1 UNK         0.0949 
    101 H101       26.1048   20.4436    1.5326 H         1 UNK         0.0767 
    102 H102       24.5090   20.6729    0.8342 H         1 UNK         0.0767 
    103 H103       25.8897   20.3991   -0.2164 H         1 UNK         0.0767 
    104 H104       27.5772   23.2501    1.4049 H         1 UNK         0.3013 
    105 H105       26.8644   30.4396   -0.0672 H         1 UNK         0.3121 
    106 H106       27.0056   32.7166    1.7022 H         1 UNK         0.0774 
    107 H107       27.3803   33.9772   -0.4193 H         1 UNK         0.0815 
    108 H108       27.5854   32.4717   -1.3029 H         1 UNK         0.0815 
    109 H109       26.0262   32.8723   -0.5799 H         1 UNK         0.0815 
    110 H110       29.3884   30.6125    0.2306 H         1 UNK         0.2987 
    111 H111       31.6900   32.3444    0.7863 H         1 UNK         0.0949 
    112 H112       31.4934   29.4862   -0.3116 H         1 UNK         0.0806 
    113 H113       31.6005   30.9550   -1.2815 H         1 UNK         0.0806 
    114 H114       32.9483   30.4715   -0.2693 H         1 UNK         0.0806 
    115 H115       29.8230   30.5782    2.8632 H         1 UNK         0.3010 
    116 H116       31.5237   28.7728    4.1126 H         1 UNK         0.0829 
    117 H117       29.0971   28.7404    4.4508 H         1 UNK         0.0813 
    118 H118       29.8712   28.8922    6.0156 H         1 UNK         0.0813 
    119 H119       29.1368   30.3049    5.2673 H         1 UNK         0.0813 
    120 H120       31.6882   32.2041    4.4497 H         1 UNK         0.3038 
    121 H121       33.0635   32.4365    6.9275 H         1 UNK         0.0769 
    122 H122       33.8651   34.6026    5.9583 H         1 UNK         0.0811 
    123 H123       32.1418   34.3908    5.7005 H         1 UNK         0.0811 
    124 H124       33.2736   34.1257    4.3727 H         1 UNK         0.0811 
    125 H125       34.1518   31.1914    3.8044 H         1 UNK         0.3204 
    126 H126       36.9828   31.4307    4.2643 H         1 UNK         0.0748 
    127 H127       37.1415   29.8958    2.3240 H         1 UNK         0.0771 
    128 H128       35.4239   29.5355    2.4246 H         1 UNK         0.0771 
    129 H129       35.9648   31.1572    1.9912 H         1 UNK         0.0771 
    130 H130       34.5832   29.2347    5.5784 H         1 UNK         0.2980 
    131 H131       36.4660   27.0852    6.1384 H         1 UNK         0.0545 
    132 H132       36.0933   30.1554    7.6552 H         1 UNK         0.3459 
    133 H133       36.7379   29.6733    9.2058 H         1 UNK         0.3459 
    134 H134       33.6480   27.4573    7.2287 H         1 UNK         0.0616 
    135 H135       34.6085   26.0034    7.3321 H         1 UNK         0.0616 
    136 H136       31.8328   25.3414    6.1678 H         1 UNK         0.0634 
    137 H137       31.6863   27.0803    6.0442 H         1 UNK         0.0634 
@<TRIPOS>BOND
     1    1    2 1    
     2    1   72 1    
     3    1   73 1    
     4    1   74 1    
     5    2    3 2    
     6    2    4 am   BACKBONE|DICT|INTERRES
     7    4    5 1    
     8    4   75 1    
     9    5    6 1    
    10    5   35 1    
    11    5   76 1    
    12    6    7 1    
    13    6   77 1    
    14    6   78 1    
    15    7    8 1    
    16    8    9 1    
    17    8   79 1    
    18    8   80 1    
    19    9   10 ar   
    20    9   14 ar   
    21   10   11 ar   
    22   10   81 1    
    23   11   12 ar   
    24   11   71 1    
    25   12   13 ar   
    26   12   82 1    
    27   13   14 ar   
    28   13   15 1    
    29   14   83 1    
    30   15   16 1    
    31   15   84 1    
    32   15   85 1    
    33   16   17 1    
    34   17   18 1    
    35   17   86 1    
    36   17   87 1    
    37   18   19 1    
    38   18   37 1    
    39   18   88 1    
    40   19   20 am   BACKBONE|DICT|INTERRES
    41   19   89 1    
    42   20   21 2    
    43   20   22 1    
    44   22   23 1    
    45   22   24 1    
    46   22   90 1    
    47   23   91 1    
    48   23   92 1    
    49   23   93 1    
    50   24   25 am   BACKBONE|DICT|INTERRES
    51   24   94 1    
    52   25   26 2    
    53   25   27 1    
    54   27   28 1    
    55   27   29 1    
    56   27   95 1    
    57   28   96 1    
    58   28   97 1    
    59   28   98 1    
    60   29   30 am   BACKBONE|DICT|INTERRES
    61   29   99 1    
    62   30   31 2    
    63   30   32 1    
    64   32   33 1    
    65   32   34 1    
    66   32  100 1    
    67   33  101 1    
    68   33  102 1    
    69   33  103 1    
    70   34   35 am   BACKBONE|DICT|INTERRES
    71   34  104 1    
    72   35   36 2    
    73   37   38 2    
    74   37   39 am   BACKBONE|DICT|INTERRES
    75   39   40 1    
    76   39  105 1    
    77   40   41 1    
    78   40   42 1    
    79   40  106 1    
    80   41  107 1    
    81   41  108 1    
    82   41  109 1    
    83   42   43 2    
    84   42   44 am   BACKBONE|DICT|INTERRES
    85   44   45 1    
    86   44  110 1    
    87   45   46 1    
    88   45   47 1    
    89   45  111 1    
    90   46  112 1    
    91   46  113 1    
    92   46  114 1    
    93   47   48 2    
    94   47   49 am   BACKBONE|DICT|INTERRES
    95   49   50 1    
    96   49  115 1    
    97   50   51 1    
    98   50   52 1    
    99   50  116 1    
   100   51  117 1    
   101   51  118 1    
   102   51  119 1    
   103   52   53 2    
   104   52   54 am   BACKBONE|DICT|INTERRES
   105   54   55 1    
   106   54  120 1    
   107   55   56 1    
   108   55   57 1    
   109   55  121 1    
   110   56  122 1    
   111   56  123 1    
   112   56  124 1    
   113   57   58 2    
   114   57   59 am   BACKBONE|DICT|INTERRES
   115   59   60 1    
   116   59  125 1    
   117   60   61 1    
   118   60   62 1    
   119   60  126 1    
   120   61  127 1    
   121   61  128 1    
   122   61  129 1    
   123   62   63 2    
   124   62   64 am   BACKBONE|DICT|INTERRES
   125   64   65 1    
   126   64  130 1    
   127   65   66 1    
   128   65   69 1    
   129   65  131 1    
   130   66   67 am   BACKBONE|DICT|INTERRES
   131   66   68 2    
   132   67  132 1    
   133   67  133 1    
   134   69   70 1    
   135   69  134 1    
   136   69  135 1    
   137   70   71 1    
   138   71  136 1    
   139   71  137 1    
@<TRIPOS>SUBSTRUCTURE
     1 UNK         1 GROUP             0       ****    0 ROOT    
