@<TRIPOS>MOLECULE
3R136
137   139    1
SMALL
USER_CHARGES


@<TRIPOS>ATOM
      1 CA         25.7245   23.1510    2.9320 C.3       0 UNK        -0.1979 
      2 C          26.2236   22.7297    1.5581 C.2       0 UNK         0.4864 
      3 O          25.4190   22.4056    0.6833 O.2       0 UNK        -0.5359 
      4 N          27.5487   22.7348    1.3634 N.am      1 UNK        -0.4318 
      5 CA         28.2365   22.3331    0.1300 C.3       1 UNK         0.0824 
      6 C6         29.7577   22.1270    0.3505 C.3       12 UNK        -0.0944 
      7 S7         30.5873   23.5223    1.1916 S.3       12 UNK        -0.2672 
      8 C8         31.1915   22.6911    2.6929 C.3       12 UNK         0.0333 
      9 C9         31.8533   23.6836    3.6322 C.ar      12 UNK        -0.0807 
     10 C10        33.2166   23.9671    3.5135 C.ar      12 UNK        -0.0894 
     11 C11        33.8235   24.9047    4.3557 C.ar      12 UNK        -0.0804 
     12 C12        33.0555   25.5557    5.3246 C.ar      12 UNK        -0.0824 
     13 C13        31.6914   25.2761    5.4546 C.ar      12 UNK        -0.0762 
     14 C14        31.0990   24.3282    4.6151 C.ar      12 UNK        -0.0782 
     15 C15        30.8538   26.0272    6.4810 C.3       12 UNK         0.0230 
     16 S16        29.4276   26.9023    5.7492 S.3       12 UNK        -0.2608 
     17 C17        30.1000   27.6543    4.2225 C.3       12 UNK        -0.0989 
     18 CA         29.3252   27.1771    2.9735 C.3       5 UNK         0.0716 
     19 N          27.9157   27.5722    3.0362 N.am      5 UNK        -0.4135 
     20 C          26.9361   26.9576    2.3658 C.2       4 UNK         0.5031 
     21 O          27.1132   25.9196    1.7182 O.2       4 UNK        -0.5229 
     22 CA         25.5344   27.6020    2.4174 C.3       4 UNK         0.0329 
     23 CB         25.5774   29.1414    2.4683 C.3       4 UNK        -0.2001 
     24 N          24.8092   27.1950    1.2192 N.am      4 UNK        -0.4303 
     25 C          23.8636   26.2544    1.1524 C.2       3 UNK         0.5044 
     26 O          23.2389   25.8322    2.1259 O.2       3 UNK        -0.5152 
     27 CA         23.6229   25.6256   -0.2339 C.3       3 UNK         0.0319 
     28 CB         22.6833   26.4871   -1.1004 C.3       3 UNK        -0.2001 
     29 N          24.8768   25.2812   -0.9288 N.am      3 UNK        -0.4354 
     30 C          25.8066   26.1039   -1.4448 C.2       2 UNK         0.4964 
     31 O          25.6727   27.3267   -1.5140 O.2       2 UNK        -0.5047 
     32 CA         27.1343   25.4570   -1.8666 C.3       2 UNK         0.0288 
     33 CB         28.2643   26.4817   -2.0852 C.3       2 UNK        -0.2113 
     34 N          27.5476   24.5000   -0.8407 N.am      2 UNK        -0.4145 
     35 C          27.9528   23.2470   -1.0825 C.2       1 UNK         0.5006 
     36 O          28.0873   22.7841   -2.2172 O.2       1 UNK        -0.5103 
     37 C          29.9535   27.6907    1.6600 C.2       5 UNK         0.5055 
     38 O          29.3562   28.5250    0.9754 O.2       5 UNK        -0.5220 
     39 N          31.1346   27.1559    1.3179 N.am      6 UNK        -0.4450 
     40 CA         31.7789   27.2939    0.0061 C.3       6 UNK         0.0367 
     41 CB         33.1113   26.5326    0.0055 C.3       6 UNK        -0.1929 
     42 C          31.9831   28.7333   -0.5040 C.2       6 UNK         0.5070 
     43 O          31.8325   28.9541   -1.7066 O.2       6 UNK        -0.5237 
     44 N          32.3085   29.6784    0.3902 N.am      7 UNK        -0.4739 
     45 CA         32.3700   31.1057    0.0623 C.3       7 UNK         0.0276 
     46 CB         33.5926   31.7616    0.7243 C.3       7 UNK        -0.1927 
     47 C          31.0726   31.8173    0.4689 C.2       7 UNK         0.5013 
     48 O          30.4934   32.5227   -0.3583 O.2       7 UNK        -0.5193 
     49 N          30.6426   31.6239    1.7235 N.am      8 UNK        -0.4253 
     50 CA         29.4397   32.2257    2.3032 C.3       8 UNK         0.0242 
     51 CB         29.5860   33.7610    2.4372 C.3       8 UNK        -0.2000 
     52 C          29.1290   31.5373    3.6376 C.2       8 UNK         0.4948 
     53 O          28.4450   30.5149    3.6466 O.2       8 UNK        -0.5275 
     54 N          29.6471   32.1007    4.7378 N.am      9 UNK        -0.4246 
     55 CA         29.5214   31.5690    6.1006 C.3       9 UNK         0.0261 
     56 CB         29.4800   32.7475    7.0886 C.3       9 UNK        -0.1959 
     57 C          30.6555   30.5938    6.4729 C.2       9 UNK         0.5033 
     58 O          30.5834   29.9602    7.5264 O.2       9 UNK        -0.5390 
     59 N          31.6765   30.4934    5.6149 N.am      10 UNK        -0.4215 
     60 CA         32.8163   29.5886    5.7078 C.3       10 UNK         0.0240 
     61 CB         33.8524   30.1479    6.7063 C.3       10 UNK        -0.1982 
     62 C          33.3887   29.3938    4.2938 C.2       10 UNK         0.4970 
     63 O          32.7378   29.7789    3.3156 O.2       10 UNK        -0.4916 
     64 N          34.5943   28.8178    4.2164 N.am      11 UNK        -0.4279 
     65 CA         35.4288   28.7617    3.0037 C.3       11 UNK         0.1003 
     66 C          36.1644   30.0984    2.6816 C.2       11 UNK         0.5709 
     67 N          36.1171   31.1171    3.5326 N.am      11 UNK        -0.7358 
     68 O          36.7829   30.2178    1.6272 O.2       11 UNK        -0.4999 
     69 C69        36.4318   27.5750    3.0646 C.3       12 UNK        -0.0954 
     70 S70        35.6679   25.9851    2.6126 S.3       12 UNK        -0.2268 
     71 C71        35.3081   25.2084    4.2171 C.3       12 UNK         0.0203 
     72 H72        25.0817   24.0250    2.8457 H         1 UNK         0.0888 
     73 H73        25.1483   22.3460    3.3868 H         1 UNK         0.0888 
     74 H74        26.5454   23.4047    3.6027 H         1 UNK         0.0888 
     75 H75        28.1561   23.0663    2.0988 H         1 UNK         0.3017 
     76 H76        27.8234   21.3600   -0.1453 H         1 UNK         0.0873 
     77 H77        29.9072   21.2186    0.9360 H         1 UNK         0.0745 
     78 H78        30.2696   21.9390   -0.5956 H         1 UNK         0.0745 
     79 H79        30.3610   22.1943    3.1973 H         1 UNK         0.0705 
     80 H80        31.8989   21.9082    2.4145 H         1 UNK         0.0705 
     81 H81        33.8048   23.4697    2.7541 H         1 UNK         0.1334 
     82 H82        33.5199   26.2839    5.9749 H         1 UNK         0.1417 
     83 H83        30.0422   24.1170    4.7092 H         1 UNK         0.1562 
     84 H84        31.4602   26.7498    7.0280 H         1 UNK         0.0748 
     85 H85        30.4858   25.3191    7.2245 H         1 UNK         0.0748 
     86 H86        31.1612   27.4316    4.1263 H         1 UNK         0.0940 
     87 H87        30.0417   28.7344    4.3167 H         1 UNK         0.0940 
     88 H88        29.3761   26.0863    2.9429 H         1 UNK         0.0703 
     89 H89        27.7410   28.4784    3.4544 H         1 UNK         0.3081 
     90 H90        25.0303   27.2322    3.3124 H         1 UNK         0.0719 
     91 H91        26.2195   29.5554    1.6888 H         1 UNK         0.0809 
     92 H92        24.5826   29.5688    2.3411 H         1 UNK         0.0809 
     93 H93        25.9507   29.4958    3.4294 H         1 UNK         0.0809 
     94 H94        25.2561   27.4359    0.3385 H         1 UNK         0.2990 
     95 H95        23.1205   24.6725   -0.0598 H         1 UNK         0.0690 
     96 H96        22.5027   26.0236   -2.0702 H         1 UNK         0.0788 
     97 H97        23.0815   27.4869   -1.2745 H         1 UNK         0.0788 
     98 H98        21.7150   26.6090   -0.6133 H         1 UNK         0.0788 
     99 H99        25.1201   24.2997   -0.8739 H         1 UNK         0.2993 
    100 H100       26.9405   24.9486   -2.8135 H         1 UNK         0.0949 
    101 H101       29.1901   25.9917   -2.3872 H         1 UNK         0.0767 
    102 H102       28.0040   27.1943   -2.8687 H         1 UNK         0.0767 
    103 H103       28.4679   27.0512   -1.1776 H         1 UNK         0.0767 
    104 H104       27.4492   24.8144    0.1234 H         1 UNK         0.3013 
    105 H105       31.5502   26.4763    1.9394 H         1 UNK         0.3121 
    106 H106       31.1170   26.7980   -0.7069 H         1 UNK         0.0774 
    107 H107       33.5532   26.5221   -0.9917 H         1 UNK         0.0815 
    108 H108       33.8322   27.0012    0.6723 H         1 UNK         0.0815 
    109 H109       32.9856   25.4948    0.3152 H         1 UNK         0.0815 
    110 H110       32.4064   29.4272    1.3684 H         1 UNK         0.2987 
    111 H111       32.4867   31.2387   -1.0157 H         1 UNK         0.0949 
    112 H112       33.5608   31.7034    1.8115 H         1 UNK         0.0806 
    113 H113       34.5170   31.2936    0.3874 H         1 UNK         0.0806 
    114 H114       33.6540   32.8183    0.4611 H         1 UNK         0.0806 
    115 H115       31.1564   30.9802    2.3122 H         1 UNK         0.3010 
    116 H116       28.5987   32.0159    1.6387 H         1 UNK         0.0829 
    117 H117       29.5787   34.2458    1.4611 H         1 UNK         0.0813 
    118 H118       28.7568   34.1897    3.0021 H         1 UNK         0.0813 
    119 H119       30.5137   34.0463    2.9341 H         1 UNK         0.0813 
    120 H120       30.1722   32.9578    4.6346 H         1 UNK         0.3038 
    121 H121       28.5818   31.0188    6.1876 H         1 UNK         0.0769 
    122 H122       30.4019   33.3298    7.0639 H         1 UNK         0.0811 
    123 H123       29.3453   32.3949    8.1123 H         1 UNK         0.0811 
    124 H124       28.6506   33.4201    6.8691 H         1 UNK         0.0811 
    125 H125       31.6368   31.0130    4.7494 H         1 UNK         0.3204 
    126 H126       32.4659   28.6172    6.0561 H         1 UNK         0.0748 
    127 H127       33.4050   30.3139    7.6866 H         1 UNK         0.0771 
    128 H128       34.6837   29.4591    6.8583 H         1 UNK         0.0771 
    129 H129       34.2642   31.0998    6.3693 H         1 UNK         0.0771 
    130 H130       35.0505   28.5318    5.0690 H         1 UNK         0.2980 
    131 H131       34.7669   28.6026    2.1510 H         1 UNK         0.0545 
    132 H132       35.6248   31.0412    4.4059 H         1 UNK         0.3459 
    133 H133       36.5982   31.9709    3.2982 H         1 UNK         0.3459 
    134 H134       37.2465   27.7125    2.3511 H         1 UNK         0.0616 
    135 H135       36.9120   27.5097    4.0420 H         1 UNK         0.0616 
    136 H136       35.6521   25.8425    5.0349 H         1 UNK         0.0634 
    137 H137       35.8731   24.2784    4.2923 H         1 UNK         0.0634 
@<TRIPOS>BOND
     1    1    2 1    
     2    1   72 1    
     3    1   73 1    
     4    1   74 1    
     5    2    3 2    
     6    2    4 am   BACKBONE|DICT|INTERRES
     7    4    5 1    
     8    4   75 1    
     9    5    6 1    
    10    5   35 1    
    11    5   76 1    
    12    6    7 1    
    13    6   77 1    
    14    6   78 1    
    15    7    8 1    
    16    8    9 1    
    17    8   79 1    
    18    8   80 1    
    19    9   10 ar   
    20    9   14 ar   
    21   10   11 ar   
    22   10   81 1    
    23   11   12 ar   
    24   11   71 1    
    25   12   13 ar   
    26   12   82 1    
    27   13   14 ar   
    28   13   15 1    
    29   14   83 1    
    30   15   16 1    
    31   15   84 1    
    32   15   85 1    
    33   16   17 1    
    34   17   18 1    
    35   17   86 1    
    36   17   87 1    
    37   18   19 1    
    38   18   37 1    
    39   18   88 1    
    40   19   20 am   BACKBONE|DICT|INTERRES
    41   19   89 1    
    42   20   21 2    
    43   20   22 1    
    44   22   23 1    
    45   22   24 1    
    46   22   90 1    
    47   23   91 1    
    48   23   92 1    
    49   23   93 1    
    50   24   25 am   BACKBONE|DICT|INTERRES
    51   24   94 1    
    52   25   26 2    
    53   25   27 1    
    54   27   28 1    
    55   27   29 1    
    56   27   95 1    
    57   28   96 1    
    58   28   97 1    
    59   28   98 1    
    60   29   30 am   BACKBONE|DICT|INTERRES
    61   29   99 1    
    62   30   31 2    
    63   30   32 1    
    64   32   33 1    
    65   32   34 1    
    66   32  100 1    
    67   33  101 1    
    68   33  102 1    
    69   33  103 1    
    70   34   35 am   BACKBONE|DICT|INTERRES
    71   34  104 1    
    72   35   36 2    
    73   37   38 2    
    74   37   39 am   BACKBONE|DICT|INTERRES
    75   39   40 1    
    76   39  105 1    
    77   40   41 1    
    78   40   42 1    
    79   40  106 1    
    80   41  107 1    
    81   41  108 1    
    82   41  109 1    
    83   42   43 2    
    84   42   44 am   BACKBONE|DICT|INTERRES
    85   44   45 1    
    86   44  110 1    
    87   45   46 1    
    88   45   47 1    
    89   45  111 1    
    90   46  112 1    
    91   46  113 1    
    92   46  114 1    
    93   47   48 2    
    94   47   49 am   BACKBONE|DICT|INTERRES
    95   49   50 1    
    96   49  115 1    
    97   50   51 1    
    98   50   52 1    
    99   50  116 1    
   100   51  117 1    
   101   51  118 1    
   102   51  119 1    
   103   52   53 2    
   104   52   54 am   BACKBONE|DICT|INTERRES
   105   54   55 1    
   106   54  120 1    
   107   55   56 1    
   108   55   57 1    
   109   55  121 1    
   110   56  122 1    
   111   56  123 1    
   112   56  124 1    
   113   57   58 2    
   114   57   59 am   BACKBONE|DICT|INTERRES
   115   59   60 1    
   116   59  125 1    
   117   60   61 1    
   118   60   62 1    
   119   60  126 1    
   120   61  127 1    
   121   61  128 1    
   122   61  129 1    
   123   62   63 2    
   124   62   64 am   BACKBONE|DICT|INTERRES
   125   64   65 1    
   126   64  130 1    
   127   65   66 1    
   128   65   69 1    
   129   65  131 1    
   130   66   67 am   BACKBONE|DICT|INTERRES
   131   66   68 2    
   132   67  132 1    
   133   67  133 1    
   134   69   70 1    
   135   69  134 1    
   136   69  135 1    
   137   70   71 1    
   138   71  136 1    
   139   71  137 1    
@<TRIPOS>SUBSTRUCTURE
     1 UNK         1 GROUP             0       ****    0 ROOT    
