@<TRIPOS>MOLECULE
3R136
137   139    1
SMALL
USER_CHARGES


@<TRIPOS>ATOM
      1 CA         28.5997   22.5567   -1.7254 C.3       0 UNK        -0.1979 
      2 C          28.8068   23.5201   -0.5675 C.2       0 UNK         0.4864 
      3 O          28.0634   24.4954   -0.4508 O.2       0 UNK        -0.5359 
      4 N          29.8045   23.2550    0.2859 N.am      1 UNK        -0.4318 
      5 CA         30.1509   24.0366    1.4794 C.3       1 UNK         0.0824 
      6 C6         31.3791   23.4347    2.2082 C.3       12 UNK        -0.0944 
      7 S7         32.8911   23.5356    1.1924 S.3       12 UNK        -0.2672 
      8 C8         33.7384   24.9599    1.9473 C.3       12 UNK         0.0333 
      9 C9         32.9025   26.2276    1.8500 C.ar      12 UNK        -0.0807 
     10 C10        32.2042   26.6975    2.9651 C.ar      12 UNK        -0.0894 
     11 C11        31.4260   27.8543    2.8826 C.ar      12 UNK        -0.0804 
     12 C12        31.3675   28.5545    1.6740 C.ar      12 UNK        -0.0824 
     13 C13        32.0530   28.0910    0.5451 C.ar      12 UNK        -0.0762 
     14 C14        32.8165   26.9234    0.6414 C.ar      12 UNK        -0.0782 
     15 C15        31.9997   28.8447   -0.7808 C.3       12 UNK         0.0230 
     16 S16        30.3331   29.4145   -1.2579 S.3       12 UNK        -0.2608 
     17 C17        29.3736   27.8605   -1.3109 C.3       12 UNK        -0.0989 
     18 CA         27.8830   28.1068   -0.9664 C.3       5 UNK         0.0716 
     19 N          27.0610   26.9401   -1.2672 N.am      5 UNK        -0.4135 
     20 C          25.7696   26.9861   -1.6194 C.2       4 UNK         0.5031 
     21 O          25.1550   28.0317   -1.8361 O.2       4 UNK        -0.5229 
     22 CA         25.0309   25.6463   -1.7092 C.3       4 UNK         0.0329 
     23 CB         25.5059   24.8310   -2.9244 C.3       4 UNK        -0.2001 
     24 N          25.2363   24.8740   -0.4822 N.am      4 UNK        -0.4303 
     25 C          24.2615   24.4742    0.3445 C.2       3 UNK         0.5044 
     26 O          23.0633   24.6918    0.1568 O.2       3 UNK        -0.5152 
     27 CA         24.6881   23.6830    1.5928 C.3       3 UNK         0.0319 
     28 CB         24.9286   22.2070    1.2365 C.3       3 UNK        -0.2001 
     29 N          25.8811   24.2173    2.2507 N.am      3 UNK        -0.4354 
     30 C          25.9728   25.3960    2.8799 C.2       2 UNK         0.4964 
     31 O          25.0395   26.1937    2.9708 O.2       2 UNK        -0.5047 
     32 CA         27.3278   25.7544    3.5235 C.3       2 UNK         0.0288 
     33 CB         27.4239   25.2367    4.9726 C.3       2 UNK        -0.2113 
     34 N          28.4996   25.3670    2.7232 N.am      2 UNK        -0.4145 
     35 C          28.9542   24.1361    2.4441 C.2       1 UNK         0.5006 
     36 O          28.4461   23.0978    2.8757 O.2       1 UNK        -0.5103 
     37 C          27.6506   28.4546    0.5132 C.2       5 UNK         0.5055 
     38 O          28.3358   27.9161    1.3824 O.2       5 UNK        -0.5220 
     39 N          26.6490   29.3040    0.7739 N.am      6 UNK        -0.4450 
     40 CA         26.2673   29.7401    2.1195 C.3       6 UNK         0.0367 
     41 CB         24.8875   30.4143    2.0614 C.3       6 UNK        -0.1929 
     42 C          27.2986   30.6773    2.7727 C.2       6 UNK         0.5070 
     43 O          27.3955   30.7006    3.9996 O.2       6 UNK        -0.5237 
     44 N          28.0426   31.4297    1.9534 N.am      7 UNK        -0.4739 
     45 CA         29.0891   32.3563    2.3713 C.3       7 UNK         0.0276 
     46 CB         28.4619   33.7094    2.7582 C.3       7 UNK        -0.1927 
     47 C          30.0741   32.5233    1.1998 C.2       7 UNK         0.5013 
     48 O          29.6066   32.7481    0.0830 O.2       7 UNK        -0.5193 
     49 N          31.3961   32.4463    1.4020 N.am      8 UNK        -0.4253 
     50 CA         32.1126   32.0707    2.6178 C.3       8 UNK         0.0242 
     51 CB         32.2080   33.2600    3.5921 C.3       8 UNK        -0.2000 
     52 C          33.5082   31.5698    2.2343 C.2       8 UNK         0.4948 
     53 O          34.0739   32.0427    1.2454 O.2       8 UNK        -0.5275 
     54 N          34.0308   30.6461    3.0449 N.am      9 UNK        -0.4246 
     55 CA         35.3612   30.0491    2.9758 C.3       9 UNK         0.0261 
     56 CB         35.5477   29.2101    1.6904 C.3       9 UNK        -0.1959 
     57 C          35.5427   29.2525    4.2780 C.2       9 UNK         0.5033 
     58 O          35.2737   29.7959    5.3527 O.2       9 UNK        -0.5390 
     59 N          35.9518   27.9809    4.1835 N.am      10 UNK        -0.4215 
     60 CA         36.0952   27.0446    5.3027 C.3       10 UNK         0.0240 
     61 CB         37.0509   25.9128    4.8793 C.3       10 UNK        -0.1982 
     62 C          34.7289   26.5142    5.7880 C.2       10 UNK         0.4970 
     63 O          34.4546   25.3181    5.6764 O.2       10 UNK        -0.4916 
     64 N          33.8852   27.4212    6.2920 N.am      11 UNK        -0.4279 
     65 CA         32.5232   27.1356    6.7759 C.3       11 UNK         0.1003 
     66 C          32.4560   26.4213    8.1579 C.2       11 UNK         0.5709 
     67 N          33.5498   26.3026    8.9026 N.am      11 UNK        -0.7358 
     68 O          31.3901   25.9579    8.5581 O.2       11 UNK        -0.4999 
     69 C69        31.6165   28.3963    6.7569 C.3       12 UNK        -0.0954 
     70 S70        31.6695   29.3399    5.1946 S.3       12 UNK        -0.2268 
     71 C71        30.6325   28.3334    4.0896 C.3       12 UNK         0.0203 
     72 H72        27.5785   22.1759   -1.7169 H         1 UNK         0.0888 
     73 H73        28.7649   23.0697   -2.6725 H         1 UNK         0.0888 
     74 H74        29.2798   21.7067   -1.6753 H         1 UNK         0.0888 
     75 H75        30.3790   22.4390    0.1324 H         1 UNK         0.3017 
     76 H76        30.4005   25.0449    1.1419 H         1 UNK         0.0873 
     77 H77        31.2018   22.3853    2.4525 H         1 UNK         0.0745 
     78 H78        31.5557   23.9313    3.1637 H         1 UNK         0.0745 
     79 H79        34.6944   25.1130    1.4440 H         1 UNK         0.0705 
     80 H80        33.9752   24.7291    2.9873 H         1 UNK         0.0705 
     81 H81        32.2585   26.1509    3.8940 H         1 UNK         0.1334 
     82 H82        30.7620   29.4469    1.6031 H         1 UNK         0.1417 
     83 H83        33.3521   26.5537   -0.2227 H         1 UNK         0.1562 
     84 H84        32.3920   28.2272   -1.5903 H         1 UNK         0.0748 
     85 H85        32.6565   29.7129   -0.7091 H         1 UNK         0.0748 
     86 H86        29.8108   27.1090   -0.6505 H         1 UNK         0.0940 
     87 H87        29.4597   27.4566   -2.3208 H         1 UNK         0.0940 
     88 H88        27.5411   28.9456   -1.5777 H         1 UNK         0.0703 
     89 H89        27.4778   26.0365   -1.0432 H         1 UNK         0.3081 
     90 H90        23.9709   25.8694   -1.8496 H         1 UNK         0.0719 
     91 H91        25.3597   25.3900   -3.8500 H         1 UNK         0.0809 
     92 H92        26.5645   24.5777   -2.8598 H         1 UNK         0.0809 
     93 H93        24.9459   23.9000   -3.0162 H         1 UNK         0.0809 
     94 H94        26.2015   24.6601   -0.2426 H         1 UNK         0.2990 
     95 H95        23.8663   23.7304    2.3106 H         1 UNK         0.0690 
     96 H96        25.1378   21.6135    2.1270 H         1 UNK         0.0788 
     97 H97        25.7685   22.0885    0.5502 H         1 UNK         0.0788 
     98 H98        24.0502   21.7721    0.7570 H         1 UNK         0.0788 
     99 H99        26.7037   23.6214    2.2738 H         1 UNK         0.2993 
    100 H100       27.3622   26.8434    3.5749 H         1 UNK         0.0949 
    101 H101       27.3567   24.1499    5.0270 H         1 UNK         0.0767 
    102 H102       28.3612   25.5402    5.4399 H         1 UNK         0.0767 
    103 H103       26.6127   25.6395    5.5807 H         1 UNK         0.0767 
    104 H104       28.9146   26.1541    2.2307 H         1 UNK         0.3013 
    105 H105       26.0948   29.6517    0.0030 H         1 UNK         0.3121 
    106 H106       26.1838   28.8536    2.7515 H         1 UNK         0.0774 
    107 H107       24.5649   30.7260    3.0559 H         1 UNK         0.0815 
    108 H108       24.8969   31.3027    1.4286 H         1 UNK         0.0815 
    109 H109       24.1293   29.7323    1.6761 H         1 UNK         0.0815 
    110 H110       27.9266   31.3410    0.9520 H         1 UNK         0.2987 
    111 H111       29.5808   31.9414    3.2496 H         1 UNK         0.0949 
    112 H112       27.8836   34.1336    1.9363 H         1 UNK         0.0806 
    113 H113       27.7974   33.6085    3.6166 H         1 UNK         0.0806 
    114 H114       29.2275   34.4381    3.0251 H         1 UNK         0.0806 
    115 H115       32.0141   32.5651    0.6086 H         1 UNK         0.3010 
    116 H116       31.5966   31.2387    3.0932 H         1 UNK         0.0829 
    117 H117       31.2323   33.5647    3.9662 H         1 UNK         0.0813 
    118 H118       32.8122   33.0027    4.4634 H         1 UNK         0.0813 
    119 H119       32.6717   34.1271    3.1200 H         1 UNK         0.0813 
    120 H120       33.4979   30.3532    3.8562 H         1 UNK         0.3038 
    121 H121       36.0979   30.8542    2.9815 H         1 UNK         0.0769 
    122 H122       36.5601   28.8105    1.6205 H         1 UNK         0.0811 
    123 H123       35.3891   29.8054    0.7922 H         1 UNK         0.0811 
    124 H124       34.8529   28.3745    1.6535 H         1 UNK         0.0811 
    125 H125       36.1141   27.6043    3.2609 H         1 UNK         0.3204 
    126 H126       36.5555   27.5702    6.1426 H         1 UNK         0.0748 
    127 H127       37.2069   25.2073    5.6969 H         1 UNK         0.0771 
    128 H128       36.6606   25.3483    4.0308 H         1 UNK         0.0771 
    129 H129       38.0303   26.3034    4.6005 H         1 UNK         0.0771 
    130 H130       34.1757   28.3937    6.2958 H         1 UNK         0.2980 
    131 H131       32.0800   26.4230    6.0801 H         1 UNK         0.0545 
    132 H132       33.4926   25.8334    9.7933 H         1 UNK         0.3459 
    133 H133       34.4282   26.6796    8.5844 H         1 UNK         0.3459 
    134 H134       30.5783   28.1282    6.9635 H         1 UNK         0.0616 
    135 H135       31.9151   29.0803    7.5539 H         1 UNK         0.0616 
    136 H136       30.2174   27.4769    4.6235 H         1 UNK         0.0634 
    137 H137       29.7780   28.9302    3.7667 H         1 UNK         0.0634 
@<TRIPOS>BOND
     1    1    2 1    
     2    1   72 1    
     3    1   73 1    
     4    1   74 1    
     5    2    3 2    
     6    2    4 am   BACKBONE|DICT|INTERRES
     7    4    5 1    
     8    4   75 1    
     9    5    6 1    
    10    5   35 1    
    11    5   76 1    
    12    6    7 1    
    13    6   77 1    
    14    6   78 1    
    15    7    8 1    
    16    8    9 1    
    17    8   79 1    
    18    8   80 1    
    19    9   10 ar   
    20    9   14 ar   
    21   10   11 ar   
    22   10   81 1    
    23   11   12 ar   
    24   11   71 1    
    25   12   13 ar   
    26   12   82 1    
    27   13   14 ar   
    28   13   15 1    
    29   14   83 1    
    30   15   16 1    
    31   15   84 1    
    32   15   85 1    
    33   16   17 1    
    34   17   18 1    
    35   17   86 1    
    36   17   87 1    
    37   18   19 1    
    38   18   37 1    
    39   18   88 1    
    40   19   20 am   BACKBONE|DICT|INTERRES
    41   19   89 1    
    42   20   21 2    
    43   20   22 1    
    44   22   23 1    
    45   22   24 1    
    46   22   90 1    
    47   23   91 1    
    48   23   92 1    
    49   23   93 1    
    50   24   25 am   BACKBONE|DICT|INTERRES
    51   24   94 1    
    52   25   26 2    
    53   25   27 1    
    54   27   28 1    
    55   27   29 1    
    56   27   95 1    
    57   28   96 1    
    58   28   97 1    
    59   28   98 1    
    60   29   30 am   BACKBONE|DICT|INTERRES
    61   29   99 1    
    62   30   31 2    
    63   30   32 1    
    64   32   33 1    
    65   32   34 1    
    66   32  100 1    
    67   33  101 1    
    68   33  102 1    
    69   33  103 1    
    70   34   35 am   BACKBONE|DICT|INTERRES
    71   34  104 1    
    72   35   36 2    
    73   37   38 2    
    74   37   39 am   BACKBONE|DICT|INTERRES
    75   39   40 1    
    76   39  105 1    
    77   40   41 1    
    78   40   42 1    
    79   40  106 1    
    80   41  107 1    
    81   41  108 1    
    82   41  109 1    
    83   42   43 2    
    84   42   44 am   BACKBONE|DICT|INTERRES
    85   44   45 1    
    86   44  110 1    
    87   45   46 1    
    88   45   47 1    
    89   45  111 1    
    90   46  112 1    
    91   46  113 1    
    92   46  114 1    
    93   47   48 2    
    94   47   49 am   BACKBONE|DICT|INTERRES
    95   49   50 1    
    96   49  115 1    
    97   50   51 1    
    98   50   52 1    
    99   50  116 1    
   100   51  117 1    
   101   51  118 1    
   102   51  119 1    
   103   52   53 2    
   104   52   54 am   BACKBONE|DICT|INTERRES
   105   54   55 1    
   106   54  120 1    
   107   55   56 1    
   108   55   57 1    
   109   55  121 1    
   110   56  122 1    
   111   56  123 1    
   112   56  124 1    
   113   57   58 2    
   114   57   59 am   BACKBONE|DICT|INTERRES
   115   59   60 1    
   116   59  125 1    
   117   60   61 1    
   118   60   62 1    
   119   60  126 1    
   120   61  127 1    
   121   61  128 1    
   122   61  129 1    
   123   62   63 2    
   124   62   64 am   BACKBONE|DICT|INTERRES
   125   64   65 1    
   126   64  130 1    
   127   65   66 1    
   128   65   69 1    
   129   65  131 1    
   130   66   67 am   BACKBONE|DICT|INTERRES
   131   66   68 2    
   132   67  132 1    
   133   67  133 1    
   134   69   70 1    
   135   69  134 1    
   136   69  135 1    
   137   70   71 1    
   138   71  136 1    
   139   71  137 1    
@<TRIPOS>SUBSTRUCTURE
     1 UNK         1 GROUP             0       ****    0 ROOT    
