@<TRIPOS>MOLECULE
3R136
137   139    1
SMALL
USER_CHARGES


@<TRIPOS>ATOM
      1 CA         30.5198   27.6127   -2.7749 C.3       0 UNK        -0.1979 
      2 C          29.9822   26.5493   -1.8302 C.2       0 UNK         0.4864 
      3 O          28.9040   26.7273   -1.2663 O.2       0 UNK        -0.5359 
      4 N          30.7270   25.4524   -1.6372 N.am      1 UNK        -0.4318 
      5 CA         30.3665   24.3290   -0.7623 C.3       1 UNK         0.0824 
      6 C6         31.4796   23.2558   -0.7234 C.3       12 UNK        -0.0944 
      7 S7         33.0299   23.8958   -0.0031 S.3       12 UNK        -0.2672 
      8 C8         33.1329   22.9712    1.5632 C.3       12 UNK         0.0333 
      9 C9         32.2490   23.5736    2.6467 C.ar      12 UNK        -0.0807 
     10 C10        32.7754   24.5201    3.5315 C.ar      12 UNK        -0.0894 
     11 C11        31.9853   25.0499    4.5557 C.ar      12 UNK        -0.0804 
     12 C12        30.6573   24.6395    4.6838 C.ar      12 UNK        -0.0824 
     13 C13        30.1112   23.7151    3.7904 C.ar      12 UNK        -0.0762 
     14 C14        30.9156   23.1730    2.7828 C.ar      12 UNK        -0.0782 
     15 C15        28.6537   23.3013    3.9153 C.3       12 UNK         0.0230 
     16 S16        27.5682   24.3815    2.9297 S.3       12 UNK        -0.2608 
     17 C17        27.4203   25.8682    3.9764 C.3       12 UNK        -0.0989 
     18 CA         27.9760   27.1432    3.2937 C.3       5 UNK         0.0716 
     19 N          27.2505   27.4509    2.0549 N.am      5 UNK        -0.4135 
     20 C          27.4831   28.4913    1.2430 C.2       4 UNK         0.5031 
     21 O          28.4422   29.2600    1.3654 O.2       4 UNK        -0.5229 
     22 CA         26.4524   28.7069    0.1246 C.3       4 UNK         0.0329 
     23 CB         26.7844   29.8993   -0.7935 C.3       4 UNK        -0.2001 
     24 N          26.3312   27.4985   -0.6851 N.am      4 UNK        -0.4303 
     25 C          25.2204   27.0926   -1.3107 C.2       3 UNK         0.5044 
     26 O          24.1216   27.6339   -1.1804 O.2       3 UNK        -0.5152 
     27 CA         25.3599   25.8944   -2.2646 C.3       3 UNK         0.0319 
     28 CB         25.9586   26.3433   -3.6079 C.3       3 UNK        -0.2001 
     29 N          26.1764   24.8141   -1.7115 N.am      3 UNK        -0.4354 
     30 C          25.7809   23.9640   -0.7559 C.2       2 UNK         0.4964 
     31 O          24.6627   23.9940   -0.2415 O.2       2 UNK        -0.5047 
     32 CA         26.7904   22.9021   -0.2783 C.3       2 UNK         0.0288 
     33 CB         26.6773   21.6031   -1.1013 C.3       2 UNK        -0.2113 
     34 N          28.1767   23.3880   -0.1895 N.am      2 UNK        -0.4145 
     35 C          29.0226   23.6979   -1.1822 C.2       1 UNK         0.5006 
     36 O          28.7708   23.5396   -2.3795 O.2       1 UNK        -0.5103 
     37 C          27.8833   28.3366    4.2656 C.2       5 UNK         0.5055 
     38 O          26.7711   28.7880    4.5489 O.2       5 UNK        -0.5220 
     39 N          29.0345   28.8527    4.7161 N.am      6 UNK        -0.4450 
     40 CA         29.2447   30.0395    5.5592 C.3       6 UNK         0.0367 
     41 CB         28.5225   29.9196    6.9154 C.3       6 UNK        -0.1929 
     42 C          28.9240   31.3785    4.8668 C.2       6 UNK         0.5070 
     43 O          29.6170   32.3627    5.1242 O.2       6 UNK        -0.5237 
     44 N          27.9005   31.4025    4.0037 N.am      7 UNK        -0.4739 
     45 CA         27.4725   32.5612    3.2177 C.3       7 UNK         0.0276 
     46 CB         26.1124   32.2598    2.5684 C.3       7 UNK        -0.1927 
     47 C          28.5031   32.9967    2.1614 C.2       7 UNK         0.5013 
     48 O          28.6737   34.1992    1.9553 O.2       7 UNK        -0.5193 
     49 N          29.1746   32.0252    1.5301 N.am      8 UNK        -0.4253 
     50 CA         30.2721   32.2467    0.5873 C.3       8 UNK         0.0242 
     51 CB         29.7930   32.0210   -0.8561 C.3       8 UNK        -0.2000 
     52 C          31.4597   31.3366    0.9174 C.2       8 UNK         0.4948 
     53 O          32.5905   31.8225    0.9710 O.2       8 UNK        -0.5275 
     54 N          31.1973   30.0418    1.1445 N.am      9 UNK        -0.4246 
     55 CA         32.2059   29.0685    1.5564 C.3       9 UNK         0.0261 
     56 CB         31.7675   27.6553    1.1372 C.3       9 UNK        -0.1959 
     57 C          32.4224   29.1645    3.0693 C.2       9 UNK         0.5033 
     58 O          31.6394   28.5864    3.8235 O.2       9 UNK        -0.5390 
     59 N          33.4577   29.9039    3.4810 N.am      10 UNK        -0.4215 
     60 CA         33.9264   29.9794    4.8644 C.3       10 UNK         0.0240 
     61 CB         34.5165   31.3749    5.1231 C.3       10 UNK        -0.1982 
     62 C          34.9820   28.8899    5.1075 C.2       10 UNK         0.4970 
     63 O          35.7807   28.6075    4.2107 O.2       10 UNK        -0.4916 
     64 N          34.9651   28.3023    6.3075 N.am      11 UNK        -0.4279 
     65 CA         35.8165   27.1664    6.7007 C.3       11 UNK         0.1003 
     66 C          36.2038   27.1668    8.2082 C.2       11 UNK         0.5709 
     67 N          35.9799   28.2461    8.9503 N.am      11 UNK        -0.7358 
     68 O          36.7416   26.1844    8.7140 O.2       11 UNK        -0.4999 
     69 C69        35.2584   25.8044    6.1875 C.3       12 UNK        -0.0954 
     70 S70        33.5868   25.4017    6.8103 S.3       12 UNK        -0.2268 
     71 C71        32.5422   26.1033    5.4969 C.3       12 UNK         0.0203 
     72 H72        30.6245   28.5604   -2.2470 H         1 UNK         0.0888 
     73 H73        31.4927   27.3409   -3.1837 H         1 UNK         0.0888 
     74 H74        29.8288   27.7587   -3.6046 H         1 UNK         0.0888 
     75 H75        31.6041   25.3525   -2.1270 H         1 UNK         0.3017 
     76 H76        30.2471   24.7405    0.2429 H         1 UNK         0.0873 
     77 H77        31.1565   22.3779   -0.1619 H         1 UNK         0.0745 
     78 H78        31.6959   22.8961   -1.7313 H         1 UNK         0.0745 
     79 H79        34.1721   22.9743    1.8959 H         1 UNK         0.0705 
     80 H80        32.8780   21.9232    1.3988 H         1 UNK         0.0705 
     81 H81        33.8018   24.8425    3.4249 H         1 UNK         0.1334 
     82 H82        30.0471   25.0521    5.4744 H         1 UNK         0.1417 
     83 H83        30.5024   22.4385    2.1061 H         1 UNK         0.1562 
     84 H84        28.3378   23.3053    4.9597 H         1 UNK         0.0748 
     85 H85        28.5311   22.2738    3.5692 H         1 UNK         0.0748 
     86 H86        27.9180   25.6941    4.9308 H         1 UNK         0.0940 
     87 H87        26.3636   25.9971    4.2203 H         1 UNK         0.0940 
     88 H88        29.0241   26.9761    3.0371 H         1 UNK         0.0703 
     89 H89        26.4478   26.8702    1.8644 H         1 UNK         0.3081 
     90 H90        25.5028   28.9133    0.6227 H         1 UNK         0.0719 
     91 H91        27.6664   29.6923   -1.3993 H         1 UNK         0.0809 
     92 H92        25.9600   30.1141   -1.4733 H         1 UNK         0.0809 
     93 H93        26.9768   30.8085   -0.2241 H         1 UNK         0.0809 
     94 H94        27.2150   27.0210   -0.8747 H         1 UNK         0.2990 
     95 H95        24.3585   25.5025   -2.4559 H         1 UNK         0.0690 
     96 H96        25.9866   25.5215   -4.3236 H         1 UNK         0.0788 
     97 H97        26.9756   26.7209   -3.4914 H         1 UNK         0.0788 
     98 H98        25.3630   27.1412   -4.0536 H         1 UNK         0.0788 
     99 H99        27.1109   24.6981   -2.0884 H         1 UNK         0.2993 
    100 H100       26.5049   22.6523    0.7447 H         1 UNK         0.0949 
    101 H101       26.8780   21.7666   -2.1603 H         1 UNK         0.0767 
    102 H102       27.3701   20.8429   -0.7403 H         1 UNK         0.0767 
    103 H103       25.6718   21.1868   -1.0274 H         1 UNK         0.0767 
    104 H104       28.4626   23.6164    0.7541 H         1 UNK         0.3013 
    105 H105       29.9100   28.4776    4.3474 H         1 UNK         0.3121 
    106 H106       30.3162   30.0548    5.7654 H         1 UNK         0.0774 
    107 H107       28.7981   30.7449    7.5731 H         1 UNK         0.0815 
    108 H108       27.4381   29.9446    6.8072 H         1 UNK         0.0815 
    109 H109       28.7893   28.9946    7.4263 H         1 UNK         0.0815 
    110 H110       27.3611   30.5480    3.9074 H         1 UNK         0.2987 
    111 H111       27.3420   33.3990    3.9062 H         1 UNK         0.0949 
    112 H112       25.7796   33.0938    1.9488 H         1 UNK         0.0806 
    113 H113       26.1541   31.3752    1.9337 H         1 UNK         0.0806 
    114 H114       25.3440   32.0913    3.3231 H         1 UNK         0.0806 
    115 H115       28.9400   31.0580    1.7381 H         1 UNK         0.3010 
    116 H116       30.6280   33.2761    0.6695 H         1 UNK         0.0829 
    117 H117       28.9254   32.6380   -1.0897 H         1 UNK         0.0813 
    118 H118       30.5776   32.2784   -1.5686 H         1 UNK         0.0813 
    119 H119       29.5260   30.9799   -1.0331 H         1 UNK         0.0813 
    120 H120       30.2347   29.7123    1.1207 H         1 UNK         0.3038 
    121 H121       33.1526   29.2795    1.0539 H         1 UNK         0.0769 
    122 H122       30.7427   27.4347    1.4360 H         1 UNK         0.0811 
    123 H123       32.4085   26.8923    1.5817 H         1 UNK         0.0811 
    124 H124       31.8391   27.5397    0.0582 H         1 UNK         0.0811 
    125 H125       34.0434   30.3440    2.7847 H         1 UNK         0.3204 
    126 H126       33.0857   29.8265    5.5450 H         1 UNK         0.0748 
    127 H127       34.8555   31.4715    6.1553 H         1 UNK         0.0771 
    128 H128       35.3720   31.5797    4.4778 H         1 UNK         0.0771 
    129 H129       33.7739   32.1548    4.9521 H         1 UNK         0.0771 
    130 H130       34.2762   28.5813    6.9910 H         1 UNK         0.2980 
    131 H131       36.7804   27.3072    6.2084 H         1 UNK         0.0545 
    132 H132       36.2446   28.2294    9.9229 H         1 UNK         0.3459 
    133 H133       35.6080   29.0913    8.5495 H         1 UNK         0.3459 
    134 H134       35.9281   24.9889    6.4651 H         1 UNK         0.0616 
    135 H135       35.2455   25.7995    5.0972 H         1 UNK         0.0616 
    136 H136       33.1139   26.8170    4.9102 H         1 UNK         0.0634 
    137 H137       31.7329   26.6715    5.9580 H         1 UNK         0.0634 
@<TRIPOS>BOND
     1    1    2 1    
     2    1   72 1    
     3    1   73 1    
     4    1   74 1    
     5    2    3 2    
     6    2    4 am   BACKBONE|DICT|INTERRES
     7    4    5 1    
     8    4   75 1    
     9    5    6 1    
    10    5   35 1    
    11    5   76 1    
    12    6    7 1    
    13    6   77 1    
    14    6   78 1    
    15    7    8 1    
    16    8    9 1    
    17    8   79 1    
    18    8   80 1    
    19    9   10 ar   
    20    9   14 ar   
    21   10   11 ar   
    22   10   81 1    
    23   11   12 ar   
    24   11   71 1    
    25   12   13 ar   
    26   12   82 1    
    27   13   14 ar   
    28   13   15 1    
    29   14   83 1    
    30   15   16 1    
    31   15   84 1    
    32   15   85 1    
    33   16   17 1    
    34   17   18 1    
    35   17   86 1    
    36   17   87 1    
    37   18   19 1    
    38   18   37 1    
    39   18   88 1    
    40   19   20 am   BACKBONE|DICT|INTERRES
    41   19   89 1    
    42   20   21 2    
    43   20   22 1    
    44   22   23 1    
    45   22   24 1    
    46   22   90 1    
    47   23   91 1    
    48   23   92 1    
    49   23   93 1    
    50   24   25 am   BACKBONE|DICT|INTERRES
    51   24   94 1    
    52   25   26 2    
    53   25   27 1    
    54   27   28 1    
    55   27   29 1    
    56   27   95 1    
    57   28   96 1    
    58   28   97 1    
    59   28   98 1    
    60   29   30 am   BACKBONE|DICT|INTERRES
    61   29   99 1    
    62   30   31 2    
    63   30   32 1    
    64   32   33 1    
    65   32   34 1    
    66   32  100 1    
    67   33  101 1    
    68   33  102 1    
    69   33  103 1    
    70   34   35 am   BACKBONE|DICT|INTERRES
    71   34  104 1    
    72   35   36 2    
    73   37   38 2    
    74   37   39 am   BACKBONE|DICT|INTERRES
    75   39   40 1    
    76   39  105 1    
    77   40   41 1    
    78   40   42 1    
    79   40  106 1    
    80   41  107 1    
    81   41  108 1    
    82   41  109 1    
    83   42   43 2    
    84   42   44 am   BACKBONE|DICT|INTERRES
    85   44   45 1    
    86   44  110 1    
    87   45   46 1    
    88   45   47 1    
    89   45  111 1    
    90   46  112 1    
    91   46  113 1    
    92   46  114 1    
    93   47   48 2    
    94   47   49 am   BACKBONE|DICT|INTERRES
    95   49   50 1    
    96   49  115 1    
    97   50   51 1    
    98   50   52 1    
    99   50  116 1    
   100   51  117 1    
   101   51  118 1    
   102   51  119 1    
   103   52   53 2    
   104   52   54 am   BACKBONE|DICT|INTERRES
   105   54   55 1    
   106   54  120 1    
   107   55   56 1    
   108   55   57 1    
   109   55  121 1    
   110   56  122 1    
   111   56  123 1    
   112   56  124 1    
   113   57   58 2    
   114   57   59 am   BACKBONE|DICT|INTERRES
   115   59   60 1    
   116   59  125 1    
   117   60   61 1    
   118   60   62 1    
   119   60  126 1    
   120   61  127 1    
   121   61  128 1    
   122   61  129 1    
   123   62   63 2    
   124   62   64 am   BACKBONE|DICT|INTERRES
   125   64   65 1    
   126   64  130 1    
   127   65   66 1    
   128   65   69 1    
   129   65  131 1    
   130   66   67 am   BACKBONE|DICT|INTERRES
   131   66   68 2    
   132   67  132 1    
   133   67  133 1    
   134   69   70 1    
   135   69  134 1    
   136   69  135 1    
   137   70   71 1    
   138   71  136 1    
   139   71  137 1    
@<TRIPOS>SUBSTRUCTURE
     1 UNK         1 GROUP             0       ****    0 ROOT    
