@<TRIPOS>MOLECULE
3R136
137   139    1
SMALL
USER_CHARGES


@<TRIPOS>ATOM
      1 CA         30.8209   19.8380    1.5591 C.3       0 UNK        -0.1979 
      2 C          30.6982   21.0498    0.6471 C.2       0 UNK         0.4864 
      3 O          31.3100   21.0762   -0.4222 O.2       0 UNK        -0.5359 
      4 N          29.9182   22.0542    1.0646 N.am      1 UNK        -0.4318 
      5 CA         29.6107   23.2576    0.2884 C.3       1 UNK         0.0824 
      6 C6         29.1811   24.4407    1.1993 C.3       12 UNK        -0.0944 
      7 S7         27.8320   24.0694    2.3810 S.3       12 UNK        -0.2672 
      8 C8         28.7365   23.7451    3.9328 C.3       12 UNK         0.0333 
      9 C9         29.2359   25.0268    4.5827 C.ar      12 UNK        -0.0807 
     10 C10        30.5638   25.4335    4.4190 C.ar      12 UNK        -0.0894 
     11 C11        31.0163   26.6238    4.9946 C.ar      12 UNK        -0.0804 
     12 C12        30.1304   27.4093    5.7368 C.ar      12 UNK        -0.0824 
     13 C13        28.8049   27.0076    5.9218 C.ar      12 UNK        -0.0762 
     14 C14        28.3680   25.8046    5.3554 C.ar      12 UNK        -0.0782 
     15 C15        27.8472   27.8855    6.7179 C.3       12 UNK         0.0230 
     16 S16        26.3665   28.3557    5.7622 S.3       12 UNK        -0.2608 
     17 C17        27.0788   29.2914    4.3609 C.3       12 UNK        -0.0989 
     18 CA         27.4125   28.4011    3.1286 C.3       5 UNK         0.0716 
     19 N          26.3285   27.4956    2.7341 N.am      5 UNK        -0.4135 
     20 C          25.1179   27.8304    2.2701 C.2       4 UNK         0.5031 
     21 O          24.7351   28.9862    2.0774 O.2       4 UNK        -0.5229 
     22 CA         24.1885   26.6451    1.9433 C.3       4 UNK         0.0329 
     23 CB         22.7408   26.9353    2.3780 C.3       4 UNK        -0.2001 
     24 N          24.1907   26.2431    0.5304 N.am      4 UNK        -0.4303 
     25 C          25.2612   26.0386   -0.2494 C.2       3 UNK         0.5044 
     26 O          26.4278   26.2711    0.0839 O.2       3 UNK        -0.5152 
     27 CA         24.9911   25.4560   -1.6415 C.3       3 UNK         0.0319 
     28 CB         24.4730   26.5183   -2.6269 C.3       3 UNK        -0.2001 
     29 N          26.2533   24.9032   -2.1111 N.am      3 UNK        -0.4354 
     30 C          26.4270   23.9046   -2.9787 C.2       2 UNK         0.4964 
     31 O          25.5140   23.3729   -3.6114 O.2       2 UNK        -0.5047 
     32 CA         27.8728   23.4070   -3.1617 C.3       2 UNK         0.0288 
     33 CB         28.5261   24.0968   -4.3710 C.3       2 UNK        -0.2113 
     34 N          28.7226   23.6037   -1.9779 N.am      2 UNK        -0.4145 
     35 C          28.5824   22.9390   -0.8202 C.2       1 UNK         0.5006 
     36 O          27.6982   22.1016   -0.6178 O.2       1 UNK        -0.5103 
     37 C          28.0087   29.1998    1.9486 C.2       5 UNK         0.5055 
     38 O          28.6295   30.2408    2.1723 O.2       5 UNK        -0.5220 
     39 N          27.8642   28.6856    0.7162 N.am      6 UNK        -0.4450 
     40 CA         28.4017   29.2907   -0.5078 C.3       6 UNK         0.0367 
     41 CB         27.7458   28.6377   -1.7331 C.3       6 UNK        -0.1929 
     42 C          29.9347   29.2164   -0.6140 C.2       6 UNK         0.5070 
     43 O          30.5219   29.9733   -1.3882 O.2       6 UNK        -0.5237 
     44 N          30.5674   28.3381    0.1766 N.am      7 UNK        -0.4739 
     45 CA         32.0191   28.1790    0.3061 C.3       7 UNK         0.0276 
     46 CB         32.3075   26.7940    0.9139 C.3       7 UNK        -0.1927 
     47 C          32.6635   29.3302    1.1089 C.2       7 UNK         0.5013 
     48 O          33.3007   29.0920    2.1352 O.2       7 UNK        -0.5193 
     49 N          32.4494   30.5671    0.6386 N.am      8 UNK        -0.4253 
     50 CA         32.9530   31.8457    1.1596 C.3       8 UNK         0.0242 
     51 CB         34.4902   31.9077    1.0271 C.3       8 UNK        -0.2000 
     52 C          32.4942   32.2049    2.5888 C.2       8 UNK         0.4948 
     53 O          33.0524   33.1361    3.1716 O.2       8 UNK        -0.5275 
     54 N          31.5167   31.4705    3.1437 N.am      9 UNK        -0.4246 
     55 CA         30.9390   31.5475    4.4966 C.3       9 UNK         0.0261 
     56 CB         30.1966   32.8797    4.7102 C.3       9 UNK        -0.1959 
     57 C          31.9193   31.2687    5.6553 C.2       9 UNK         0.5033 
     58 O          31.5448   30.5823    6.6051 O.2       9 UNK        -0.5390 
     59 N          33.1469   31.7891    5.5632 N.am      10 UNK        -0.4215 
     60 CA         34.2419   31.5889    6.5137 C.3       10 UNK         0.0240 
     61 CB         35.2265   32.7630    6.3799 C.3       10 UNK        -0.1982 
     62 C          34.9777   30.2474    6.3319 C.2       10 UNK         0.4970 
     63 O          35.7656   29.8867    7.2078 O.2       10 UNK        -0.4916 
     64 N          34.7277   29.5490    5.2147 N.am      11 UNK        -0.4279 
     65 CA         35.3781   28.2938    4.8036 C.3       11 UNK         0.1003 
     66 C          36.8743   28.4902    4.4085 C.2       11 UNK         0.5709 
     67 N          37.6393   27.4167    4.2547 N.am      11 UNK        -0.7358 
     68 O          37.3469   29.6051    4.1903 O.2       11 UNK        -0.4999 
     69 C69        35.1471   27.1145    5.8020 C.3       12 UNK        -0.0954 
     70 S70        33.4227   26.8084    6.3307 S.3       12 UNK        -0.2268 
     71 C71        32.4579   27.0695    4.8113 C.3       12 UNK         0.0203 
     72 H72        30.4638   18.9453    1.0462 H         1 UNK         0.0888 
     73 H73        31.8632   19.6795    1.8346 H         1 UNK         0.0888 
     74 H74        30.2427   19.9568    2.4753 H         1 UNK         0.0888 
     75 H75        29.3869   21.9529    1.9167 H         1 UNK         0.3017 
     76 H76        30.5329   23.5633   -0.2114 H         1 UNK         0.0873 
     77 H77        30.0490   24.7886    1.7574 H         1 UNK         0.0745 
     78 H78        28.8773   25.2958    0.5935 H         1 UNK         0.0745 
     79 H79        28.0691   23.2270    4.6231 H         1 UNK         0.0705 
     80 H80        29.5658   23.0619    3.7460 H         1 UNK         0.0705 
     81 H81        31.2456   24.8252    3.8406 H         1 UNK         0.1334 
     82 H82        30.4808   28.3312    6.1781 H         1 UNK         0.1417 
     83 H83        27.3413   25.4917    5.4899 H         1 UNK         0.1562 
     84 H84        28.3445   28.7923    7.0665 H         1 UNK         0.0748 
     85 H85        27.5328   27.3442    7.6111 H         1 UNK         0.0748 
     86 H86        27.9687   29.8171    4.7100 H         1 UNK         0.0940 
     87 H87        26.3643   30.0671    4.0796 H         1 UNK         0.0940 
     88 H88        28.2296   27.7421    3.4140 H         1 UNK         0.0703 
     89 H89        26.5563   26.5118    2.7829 H         1 UNK         0.3081 
     90 H90        24.5331   25.7824    2.5175 H         1 UNK         0.0719 
     91 H91        22.2949   27.7368    1.7875 H         1 UNK         0.0809 
     92 H92        22.1092   26.0524    2.2780 H         1 UNK         0.0809 
     93 H93        22.7019   27.2420    3.4243 H         1 UNK         0.0809 
     94 H94        23.2829   26.0439    0.1360 H         1 UNK         0.2990 
     95 H95        24.2590   24.6517   -1.5429 H         1 UNK         0.0690 
     96 H96        24.2438   26.0757   -3.5964 H         1 UNK         0.0788 
     97 H97        25.2032   27.3099   -2.7905 H         1 UNK         0.0788 
     98 H98        23.5577   26.9849   -2.2610 H         1 UNK         0.0788 
     99 H99        27.0495   25.2434   -1.5860 H         1 UNK         0.2993 
    100 H100       27.8221   22.3348   -3.3644 H         1 UNK         0.0949 
    101 H101       27.9319   23.9463   -5.2736 H         1 UNK         0.0767 
    102 H102       28.6217   25.1729   -4.2199 H         1 UNK         0.0767 
    103 H103       29.5197   23.6942   -4.5695 H         1 UNK         0.0767 
    104 H104       29.4795   24.2653   -2.0745 H         1 UNK         0.3013 
    105 H105       27.3409   27.8186    0.6026 H         1 UNK         0.3121 
    106 H106       28.1319   30.3490   -0.5039 H         1 UNK         0.0774 
    107 H107       28.0988   29.0956   -2.6581 H         1 UNK         0.0815 
    108 H108       27.9664   27.5715   -1.7920 H         1 UNK         0.0815 
    109 H109       26.6639   28.7610   -1.7047 H         1 UNK         0.0815 
    110 H110       29.9982   27.7808    0.7954 H         1 UNK         0.2987 
    111 H111       32.4633   28.2034   -0.6915 H         1 UNK         0.0949 
    112 H112       31.8336   26.6790    1.8881 H         1 UNK         0.0806 
    113 H113       31.9444   25.9949    0.2677 H         1 UNK         0.0806 
    114 H114       33.3787   26.6367    1.0481 H         1 UNK         0.0806 
    115 H115       31.8606   30.6307   -0.1893 H         1 UNK         0.3010 
    116 H116       32.5337   32.6174    0.5124 H         1 UNK         0.0829 
    117 H117       34.8106   31.6803    0.0104 H         1 UNK         0.0813 
    118 H118       34.8675   32.9028    1.2663 H         1 UNK         0.0813 
    119 H119       34.9832   31.2044    1.6995 H         1 UNK         0.0813 
    120 H120       31.1247   30.7377    2.5675 H         1 UNK         0.3038 
    121 H121       30.1946   30.7512    4.5331 H         1 UNK         0.0769 
    122 H122       29.4272   33.0267    3.9520 H         1 UNK         0.0811 
    123 H123       30.8722   33.7348    4.6742 H         1 UNK         0.0811 
    124 H124       29.7012   32.8977    5.6819 H         1 UNK         0.0811 
    125 H125       33.3348   32.3707    4.7460 H         1 UNK         0.3204 
    126 H126       33.8307   31.5995    7.5254 H         1 UNK         0.0748 
    127 H127       34.7339   33.7173    6.5673 H         1 UNK         0.0771 
    128 H128       36.0429   32.6747    7.0982 H         1 UNK         0.0771 
    129 H129       35.6704   32.8038    5.3841 H         1 UNK         0.0771 
    130 H130       34.0944   29.9426    4.5347 H         1 UNK         0.2980 
    131 H131       34.8996   28.0217    3.8646 H         1 UNK         0.0545 
    132 H132       38.6019   27.5397    3.9820 H         1 UNK         0.3459 
    133 H133       37.2765   26.4891    4.4060 H         1 UNK         0.3459 
    134 H134       35.4999   26.1807    5.3625 H         1 UNK         0.0616 
    135 H135       35.7439   27.2608    6.7035 H         1 UNK         0.0616 
    136 H136       32.4703   28.1252    4.5404 H         1 UNK         0.0634 
    137 H137       32.9290   26.5251    3.9921 H         1 UNK         0.0634 
@<TRIPOS>BOND
     1    1    2 1    
     2    1   72 1    
     3    1   73 1    
     4    1   74 1    
     5    2    3 2    
     6    2    4 am   BACKBONE|DICT|INTERRES
     7    4    5 1    
     8    4   75 1    
     9    5    6 1    
    10    5   35 1    
    11    5   76 1    
    12    6    7 1    
    13    6   77 1    
    14    6   78 1    
    15    7    8 1    
    16    8    9 1    
    17    8   79 1    
    18    8   80 1    
    19    9   10 ar   
    20    9   14 ar   
    21   10   11 ar   
    22   10   81 1    
    23   11   12 ar   
    24   11   71 1    
    25   12   13 ar   
    26   12   82 1    
    27   13   14 ar   
    28   13   15 1    
    29   14   83 1    
    30   15   16 1    
    31   15   84 1    
    32   15   85 1    
    33   16   17 1    
    34   17   18 1    
    35   17   86 1    
    36   17   87 1    
    37   18   19 1    
    38   18   37 1    
    39   18   88 1    
    40   19   20 am   BACKBONE|DICT|INTERRES
    41   19   89 1    
    42   20   21 2    
    43   20   22 1    
    44   22   23 1    
    45   22   24 1    
    46   22   90 1    
    47   23   91 1    
    48   23   92 1    
    49   23   93 1    
    50   24   25 am   BACKBONE|DICT|INTERRES
    51   24   94 1    
    52   25   26 2    
    53   25   27 1    
    54   27   28 1    
    55   27   29 1    
    56   27   95 1    
    57   28   96 1    
    58   28   97 1    
    59   28   98 1    
    60   29   30 am   BACKBONE|DICT|INTERRES
    61   29   99 1    
    62   30   31 2    
    63   30   32 1    
    64   32   33 1    
    65   32   34 1    
    66   32  100 1    
    67   33  101 1    
    68   33  102 1    
    69   33  103 1    
    70   34   35 am   BACKBONE|DICT|INTERRES
    71   34  104 1    
    72   35   36 2    
    73   37   38 2    
    74   37   39 am   BACKBONE|DICT|INTERRES
    75   39   40 1    
    76   39  105 1    
    77   40   41 1    
    78   40   42 1    
    79   40  106 1    
    80   41  107 1    
    81   41  108 1    
    82   41  109 1    
    83   42   43 2    
    84   42   44 am   BACKBONE|DICT|INTERRES
    85   44   45 1    
    86   44  110 1    
    87   45   46 1    
    88   45   47 1    
    89   45  111 1    
    90   46  112 1    
    91   46  113 1    
    92   46  114 1    
    93   47   48 2    
    94   47   49 am   BACKBONE|DICT|INTERRES
    95   49   50 1    
    96   49  115 1    
    97   50   51 1    
    98   50   52 1    
    99   50  116 1    
   100   51  117 1    
   101   51  118 1    
   102   51  119 1    
   103   52   53 2    
   104   52   54 am   BACKBONE|DICT|INTERRES
   105   54   55 1    
   106   54  120 1    
   107   55   56 1    
   108   55   57 1    
   109   55  121 1    
   110   56  122 1    
   111   56  123 1    
   112   56  124 1    
   113   57   58 2    
   114   57   59 am   BACKBONE|DICT|INTERRES
   115   59   60 1    
   116   59  125 1    
   117   60   61 1    
   118   60   62 1    
   119   60  126 1    
   120   61  127 1    
   121   61  128 1    
   122   61  129 1    
   123   62   63 2    
   124   62   64 am   BACKBONE|DICT|INTERRES
   125   64   65 1    
   126   64  130 1    
   127   65   66 1    
   128   65   69 1    
   129   65  131 1    
   130   66   67 am   BACKBONE|DICT|INTERRES
   131   66   68 2    
   132   67  132 1    
   133   67  133 1    
   134   69   70 1    
   135   69  134 1    
   136   69  135 1    
   137   70   71 1    
   138   71  136 1    
   139   71  137 1    
@<TRIPOS>SUBSTRUCTURE
     1 UNK         1 GROUP             0       ****    0 ROOT    
