@<TRIPOS>MOLECULE
3R136
137   139    1
SMALL
USER_CHARGES


@<TRIPOS>ATOM
      1 CA         26.3765   22.9559    2.1484 C.3       0 UNK        -0.1979 
      2 C          27.2265   22.3424    1.0495 C.2       0 UNK         0.4864 
      3 O          27.2999   21.1177    0.9431 O.2       0 UNK        -0.5359 
      4 N          27.8566   23.1756    0.2099 N.am      1 UNK        -0.4318 
      5 CA         28.7582   22.7771   -0.8813 C.3       1 UNK         0.0824 
      6 C6         29.7760   23.9003   -1.2398 C.3       12 UNK        -0.0944 
      7 S7         30.5104   24.8295    0.1529 S.3       12 UNK        -0.2672 
      8 C8         31.0379   23.5677    1.3538 C.3       12 UNK         0.0333 
      9 C9         31.1101   24.2066    2.7302 C.ar      12 UNK        -0.0807 
     10 C10        32.2059   25.0003    3.0761 C.ar      12 UNK        -0.0894 
     11 C11        32.2379   25.6847    4.2944 C.ar      12 UNK        -0.0804 
     12 C12        31.1475   25.5709    5.1667 C.ar      12 UNK        -0.0824 
     13 C13        30.0536   24.7609    4.8421 C.ar      12 UNK        -0.0762 
     14 C14        30.0512   24.0640    3.6304 C.ar      12 UNK        -0.0782 
     15 C15        28.8653   24.6607    5.7932 C.3       12 UNK         0.0230 
     16 S16        27.2948   25.2130    5.0396 S.3       12 UNK        -0.2608 
     17 C17        27.7414   26.8468    4.3646 C.3       12 UNK        -0.0989 
     18 CA         27.8500   26.8070    2.8179 C.3       5 UNK         0.0716 
     19 N          26.5318   26.7270    2.1802 N.am      5 UNK        -0.4135 
     20 C          26.3294   26.3385    0.9166 C.2       4 UNK         0.5031 
     21 O          27.2277   25.9463    0.1674 O.2       4 UNK        -0.5229 
     22 CA         24.8820   26.3465    0.4105 C.3       4 UNK         0.0329 
     23 CB         24.3909   27.7829    0.1502 C.3       4 UNK        -0.2001 
     24 N          24.8204   25.5681   -0.8258 N.am      4 UNK        -0.4303 
     25 C          23.7359   24.9651   -1.3256 C.2       3 UNK         0.5044 
     26 O          22.6304   24.9757   -0.7839 O.2       3 UNK        -0.5152 
     27 CA         23.9274   24.2027   -2.6420 C.3       3 UNK         0.0319 
     28 CB         24.4434   25.1242   -3.7672 C.3       3 UNK        -0.2001 
     29 N          24.8285   23.0708   -2.4293 N.am      3 UNK        -0.4354 
     30 C          24.9647   22.0157   -3.2457 C.2       2 UNK         0.4964 
     31 O          24.3275   21.8817   -4.2920 O.2       2 UNK        -0.5047 
     32 CA         25.9605   20.9138   -2.8155 C.3       2 UNK         0.0288 
     33 CB         26.5806   20.1655   -4.0157 C.3       2 UNK        -0.2113 
     34 N          26.9999   21.3880   -1.8906 N.am      2 UNK        -0.4145 
     35 C          27.9524   22.3060   -2.1180 C.2       1 UNK         0.5006 
     36 O          28.1585   22.8122   -3.2228 O.2       1 UNK        -0.5103 
     37 C          28.6319   28.0302    2.3124 C.2       5 UNK         0.5055 
     38 O          28.0402   29.0927    2.1045 O.2       5 UNK        -0.5220 
     39 N          29.9606   27.8879    2.2140 N.am      6 UNK        -0.4450 
     40 CA         30.9038   28.9662    1.9013 C.3       6 UNK         0.0367 
     41 CB         32.1691   28.3659    1.2610 C.3       6 UNK        -0.1929 
     42 C          31.2106   29.8312    3.1413 C.2       6 UNK         0.5070 
     43 O          32.3765   30.0414    3.4870 O.2       6 UNK        -0.5237 
     44 N          30.1521   30.3147    3.8017 N.am      7 UNK        -0.4739 
     45 CA         30.2163   31.2408    4.9304 C.3       7 UNK         0.0276 
     46 CB         28.8272   31.3498    5.5768 C.3       7 UNK        -0.1927 
     47 C          30.7145   32.6163    4.4627 C.2       7 UNK         0.5013 
     48 O          30.2930   33.0834    3.4020 O.2       7 UNK        -0.5193 
     49 N          31.6382   33.2096    5.2280 N.am      8 UNK        -0.4253 
     50 CA         32.3999   34.4408    4.9682 C.3       8 UNK         0.0242 
     51 CB         31.4819   35.6612    4.7581 C.3       8 UNK        -0.2000 
     52 C          33.4302   34.3056    3.8308 C.2       8 UNK         0.4948 
     53 O          34.5170   34.8742    3.9402 O.2       8 UNK        -0.5275 
     54 N          33.0938   33.5448    2.7808 N.am      9 UNK        -0.4246 
     55 CA         33.9718   33.1909    1.6655 C.3       9 UNK         0.0261 
     56 CB         33.1447   32.5123    0.5616 C.3       9 UNK        -0.1959 
     57 C          35.1500   32.2970    2.0901 C.2       9 UNK         0.5033 
     58 O          36.2586   32.4940    1.5894 O.2       9 UNK        -0.5390 
     59 N          34.8974   31.3477    3.0009 N.am      10 UNK        -0.4215 
     60 CA         35.9016   30.4401    3.5537 C.3       10 UNK         0.0240 
     61 CB         35.9116   29.1191    2.7629 C.3       10 UNK        -0.1982 
     62 C          35.6759   30.1962    5.0511 C.2       10 UNK         0.4970 
     63 O          36.6116   30.3721    5.8326 O.2       10 UNK        -0.4916 
     64 N          34.4586   29.7854    5.4242 N.am      11 UNK        -0.4279 
     65 CA         34.0848   29.4402    6.8044 C.3       11 UNK         0.1003 
     66 C          33.5602   30.6671    7.5931 C.2       11 UNK         0.5709 
     67 N          33.6747   30.6489    8.9135 N.am      11 UNK        -0.7358 
     68 O          33.0217   31.6181    7.0322 O.2       11 UNK        -0.4999 
     69 C69        33.0685   28.2685    6.8306 C.3       12 UNK        -0.0954 
     70 S70        33.8705   26.6949    6.3705 S.3       12 UNK        -0.2268 
     71 C71        33.4450   26.5679    4.6034 C.3       12 UNK         0.0203 
     72 H72        25.3565   23.1125    1.7989 H         1 UNK         0.0888 
     73 H73        26.3446   22.2998    3.0179 H         1 UNK         0.0888 
     74 H74        26.7856   23.9099    2.4705 H         1 UNK         0.0888 
     75 H75        27.7378   24.1833    0.3040 H         1 UNK         0.3017 
     76 H76        29.3331   21.9100   -0.5503 H         1 UNK         0.0873 
     77 H77        29.2960   24.6588   -1.8616 H         1 UNK         0.0745 
     78 H78        30.5874   23.4894   -1.8431 H         1 UNK         0.0745 
     79 H79        32.0117   23.1705    1.0639 H         1 UNK         0.0705 
     80 H80        30.3496   22.7241    1.3732 H         1 UNK         0.0705 
     81 H81        33.0229   25.1092    2.3753 H         1 UNK         0.1334 
     82 H82        31.1448   26.1148    6.1007 H         1 UNK         0.1417 
     83 H83        29.1992   23.4517    3.3694 H         1 UNK         0.1562 
     84 H84        29.0418   25.2472    6.6963 H         1 UNK         0.0748 
     85 H85        28.7559   23.6252    6.1183 H         1 UNK         0.0748 
     86 H86        28.6763   27.1720    4.8259 H         1 UNK         0.0940 
     87 H87        26.9940   27.5764    4.6822 H         1 UNK         0.0940 
     88 H88        28.4150   25.9213    2.5238 H         1 UNK         0.0703 
     89 H89        25.7497   27.0527    2.7286 H         1 UNK         0.3081 
     90 H90        24.2539   25.8718    1.1675 H         1 UNK         0.0719 
     91 H91        24.4303   28.3866    1.0577 H         1 UNK         0.0809 
     92 H92        25.0007   28.2846   -0.6023 H         1 UNK         0.0809 
     93 H93        23.3576   27.7930   -0.1970 H         1 UNK         0.0809 
     94 H94        25.7100   25.4929   -1.3042 H         1 UNK         0.2990 
     95 H95        22.9498   23.8149   -2.9367 H         1 UNK         0.0690 
     96 H96        25.4702   25.4474   -3.5929 H         1 UNK         0.0788 
     97 H97        23.8262   26.0195   -3.8543 H         1 UNK         0.0788 
     98 H98        24.4162   24.6223   -4.7344 H         1 UNK         0.0788 
     99 H99        25.3530   23.0797   -1.5666 H         1 UNK         0.2993 
    100 H100       25.3692   20.1900   -2.2524 H         1 UNK         0.0949 
    101 H101       27.1191   20.8405   -4.6814 H         1 UNK         0.0767 
    102 H102       27.2756   19.3934   -3.6857 H         1 UNK         0.0767 
    103 H103       25.8103   19.6723   -4.6099 H         1 UNK         0.0767 
    104 H104       26.9339   21.0437   -0.9346 H         1 UNK         0.3013 
    105 H105       30.3696   26.9881    2.4283 H         1 UNK         0.3121 
    106 H106       30.4489   29.6289    1.1620 H         1 UNK         0.0774 
    107 H107       32.8854   29.1441    0.9954 H         1 UNK         0.0815 
    108 H108       32.6759   27.6739    1.9308 H         1 UNK         0.0815 
    109 H109       31.9282   27.8245    0.3460 H         1 UNK         0.0815 
    110 H110       29.2353   30.1316    3.4083 H         1 UNK         0.2987 
    111 H111       30.9116   30.8307    5.6647 H         1 UNK         0.0949 
    112 H112       28.8507   32.0168    6.4397 H         1 UNK         0.0806 
    113 H113       28.0874   31.7442    4.8788 H         1 UNK         0.0806 
    114 H114       28.4750   30.3793    5.9268 H         1 UNK         0.0806 
    115 H115       31.9861   32.6779    6.0265 H         1 UNK         0.3010 
    116 H116       32.9726   34.6180    5.8802 H         1 UNK         0.0829 
    117 H117       30.7782   35.7749    5.5826 H         1 UNK         0.0813 
    118 H118       32.0680   36.5794    4.7027 H         1 UNK         0.0813 
    119 H119       30.9084   35.5913    3.8335 H         1 UNK         0.0813 
    120 H120       32.1485   33.1744    2.7663 H         1 UNK         0.3038 
    121 H121       34.3873   34.1166    1.2619 H         1 UNK         0.0769 
    122 H122       32.3689   33.1778    0.1826 H         1 UNK         0.0811 
    123 H123       33.7750   32.2351   -0.2846 H         1 UNK         0.0811 
    124 H124       32.6601   31.6041    0.9198 H         1 UNK         0.0811 
    125 H125       33.9423   31.2146    3.3206 H         1 UNK         0.3204 
    126 H126       36.8907   30.8946    3.4620 H         1 UNK         0.0748 
    127 H127       36.2125   29.2833    1.7281 H         1 UNK         0.0771 
    128 H128       36.6144   28.4063    3.1964 H         1 UNK         0.0771 
    129 H129       34.9293   28.6473    2.7510 H         1 UNK         0.0771 
    130 H130       33.7144   29.7309    4.7343 H         1 UNK         0.2980 
    131 H131       34.9823   29.1045    7.3285 H         1 UNK         0.0545 
    132 H132       34.1043   29.8717    9.3907 H         1 UNK         0.3459 
    133 H133       33.3286   31.4329    9.4438 H         1 UNK         0.3459 
    134 H134       32.6597   28.1304    7.8332 H         1 UNK         0.0616 
    135 H135       32.2152   28.4692    6.1797 H         1 UNK         0.0616 
    136 H136       34.3245   26.1802    4.0870 H         1 UNK         0.0634 
    137 H137       33.2673   27.5616    4.1967 H         1 UNK         0.0634 
@<TRIPOS>BOND
     1    1    2 1    
     2    1   72 1    
     3    1   73 1    
     4    1   74 1    
     5    2    3 2    
     6    2    4 am   BACKBONE|DICT|INTERRES
     7    4    5 1    
     8    4   75 1    
     9    5    6 1    
    10    5   35 1    
    11    5   76 1    
    12    6    7 1    
    13    6   77 1    
    14    6   78 1    
    15    7    8 1    
    16    8    9 1    
    17    8   79 1    
    18    8   80 1    
    19    9   10 ar   
    20    9   14 ar   
    21   10   11 ar   
    22   10   81 1    
    23   11   12 ar   
    24   11   71 1    
    25   12   13 ar   
    26   12   82 1    
    27   13   14 ar   
    28   13   15 1    
    29   14   83 1    
    30   15   16 1    
    31   15   84 1    
    32   15   85 1    
    33   16   17 1    
    34   17   18 1    
    35   17   86 1    
    36   17   87 1    
    37   18   19 1    
    38   18   37 1    
    39   18   88 1    
    40   19   20 am   BACKBONE|DICT|INTERRES
    41   19   89 1    
    42   20   21 2    
    43   20   22 1    
    44   22   23 1    
    45   22   24 1    
    46   22   90 1    
    47   23   91 1    
    48   23   92 1    
    49   23   93 1    
    50   24   25 am   BACKBONE|DICT|INTERRES
    51   24   94 1    
    52   25   26 2    
    53   25   27 1    
    54   27   28 1    
    55   27   29 1    
    56   27   95 1    
    57   28   96 1    
    58   28   97 1    
    59   28   98 1    
    60   29   30 am   BACKBONE|DICT|INTERRES
    61   29   99 1    
    62   30   31 2    
    63   30   32 1    
    64   32   33 1    
    65   32   34 1    
    66   32  100 1    
    67   33  101 1    
    68   33  102 1    
    69   33  103 1    
    70   34   35 am   BACKBONE|DICT|INTERRES
    71   34  104 1    
    72   35   36 2    
    73   37   38 2    
    74   37   39 am   BACKBONE|DICT|INTERRES
    75   39   40 1    
    76   39  105 1    
    77   40   41 1    
    78   40   42 1    
    79   40  106 1    
    80   41  107 1    
    81   41  108 1    
    82   41  109 1    
    83   42   43 2    
    84   42   44 am   BACKBONE|DICT|INTERRES
    85   44   45 1    
    86   44  110 1    
    87   45   46 1    
    88   45   47 1    
    89   45  111 1    
    90   46  112 1    
    91   46  113 1    
    92   46  114 1    
    93   47   48 2    
    94   47   49 am   BACKBONE|DICT|INTERRES
    95   49   50 1    
    96   49  115 1    
    97   50   51 1    
    98   50   52 1    
    99   50  116 1    
   100   51  117 1    
   101   51  118 1    
   102   51  119 1    
   103   52   53 2    
   104   52   54 am   BACKBONE|DICT|INTERRES
   105   54   55 1    
   106   54  120 1    
   107   55   56 1    
   108   55   57 1    
   109   55  121 1    
   110   56  122 1    
   111   56  123 1    
   112   56  124 1    
   113   57   58 2    
   114   57   59 am   BACKBONE|DICT|INTERRES
   115   59   60 1    
   116   59  125 1    
   117   60   61 1    
   118   60   62 1    
   119   60  126 1    
   120   61  127 1    
   121   61  128 1    
   122   61  129 1    
   123   62   63 2    
   124   62   64 am   BACKBONE|DICT|INTERRES
   125   64   65 1    
   126   64  130 1    
   127   65   66 1    
   128   65   69 1    
   129   65  131 1    
   130   66   67 am   BACKBONE|DICT|INTERRES
   131   66   68 2    
   132   67  132 1    
   133   67  133 1    
   134   69   70 1    
   135   69  134 1    
   136   69  135 1    
   137   70   71 1    
   138   71  136 1    
   139   71  137 1    
@<TRIPOS>SUBSTRUCTURE
     1 UNK         1 GROUP             0       ****    0 ROOT    
