@<TRIPOS>MOLECULE
3R136
137   139    1
SMALL
USER_CHARGES


@<TRIPOS>ATOM
      1 CA         24.7120   22.3986    2.9345 C.3       0 UNK        -0.1979 
      2 C          25.5587   21.6342    1.9285 C.2       0 UNK         0.4864 
      3 O          25.2163   20.5060    1.5698 O.2       0 UNK        -0.5359 
      4 N          26.6598   22.2448    1.4724 N.am      1 UNK        -0.4318 
      5 CA         27.5281   21.7235    0.4108 C.3       1 UNK         0.0824 
      6 C6         28.9999   22.1819    0.6085 C.3       12 UNK        -0.0944 
      7 S7         29.3101   23.9559    0.2906 S.3       12 UNK        -0.2672 
      8 C8         30.8924   24.1946    1.1744 C.3       12 UNK         0.0333 
      9 C9         30.7457   24.7859    2.5758 C.ar      12 UNK        -0.0807 
     10 C10        31.7868   25.5560    3.1038 C.ar      12 UNK        -0.0894 
     11 C11        31.6772   26.1499    4.3695 C.ar      12 UNK        -0.0804 
     12 C12        30.4914   25.9785    5.0938 C.ar      12 UNK        -0.0824 
     13 C13        29.4467   25.1976    4.5900 C.ar      12 UNK        -0.0762 
     14 C14        29.5997   24.5774    3.3486 C.ar      12 UNK        -0.0782 
     15 C15        28.1622   25.0102    5.3928 C.3       12 UNK         0.0230 
     16 S16        26.6485   25.1767    4.3804 S.3       12 UNK        -0.2608 
     17 C17        26.6818   26.9462    3.9358 C.3       12 UNK        -0.0989 
     18 CA         27.2727   27.2179    2.5217 C.3       5 UNK         0.0716 
     19 N          26.6180   26.4843    1.4323 N.am      5 UNK        -0.4135 
     20 C          25.3506   26.6269    1.0207 C.2       4 UNK         0.5031 
     21 O          24.5315   27.3670    1.5680 O.2       4 UNK        -0.5229 
     22 CA         24.9389   25.8170   -0.2280 C.3       4 UNK         0.0329 
     23 CB         23.7434   26.4500   -0.9707 C.3       4 UNK        -0.2001 
     24 N          26.0358   25.5504   -1.1733 N.am      4 UNK        -0.4303 
     25 C          26.8241   26.4537   -1.7817 C.2       3 UNK         0.5044 
     26 O          26.7693   27.6591   -1.5409 O.2       3 UNK        -0.5152 
     27 CA         27.8771   25.9512   -2.7910 C.3       3 UNK         0.0319 
     28 CB         29.2647   26.5441   -2.4816 C.3       3 UNK        -0.2001 
     29 N          27.9795   24.4899   -2.8283 N.am      3 UNK        -0.4354 
     30 C          27.2946   23.6872   -3.6564 C.2       2 UNK         0.4964 
     31 O          26.5541   24.0969   -4.5505 O.2       2 UNK        -0.5047 
     32 CA         27.4294   22.1660   -3.4310 C.3       2 UNK         0.0288 
     33 CB         28.5021   21.5790   -4.3628 C.3       2 UNK        -0.2113 
     34 N          27.7351   21.7879   -2.0441 N.am      2 UNK        -0.4145 
     35 C          26.9596   22.0706   -0.9862 C.2       1 UNK         0.5006 
     36 O          25.8708   22.6422   -1.0918 O.2       1 UNK        -0.5103 
     37 C          27.4316   28.7280    2.2290 C.2       5 UNK         0.5055 
     38 O          27.5748   29.5111    3.1682 O.2       5 UNK        -0.5220 
     39 N          27.4902   29.1298    0.9469 N.am      6 UNK        -0.4450 
     40 CA         27.8459   30.4981    0.5379 C.3       6 UNK         0.0367 
     41 CB         27.6225   30.6631   -0.9733 C.3       6 UNK        -0.1929 
     42 C          29.2912   30.8875    0.9118 C.2       6 UNK         0.5070 
     43 O          29.5928   32.0753    1.0210 O.2       6 UNK        -0.5237 
     44 N          30.1454   29.8782    1.1279 N.am      7 UNK        -0.4739 
     45 CA         31.5190   30.0020    1.6122 C.3       7 UNK         0.0276 
     46 CB         32.3258   28.7941    1.1063 C.3       7 UNK        -0.1927 
     47 C          31.6318   30.1469    3.1447 C.2       7 UNK         0.5013 
     48 O          32.7548   30.1392    3.6491 O.2       7 UNK        -0.5193 
     49 N          30.5093   30.2795    3.8737 N.am      8 UNK        -0.4253 
     50 CA         30.4763   30.5379    5.3207 C.3       8 UNK         0.0242 
     51 CB         29.0244   30.7137    5.7902 C.3       8 UNK        -0.2000 
     52 C          31.3235   31.7625    5.7130 C.2       8 UNK         0.4948 
     53 O          31.2710   32.7855    5.0264 O.2       8 UNK        -0.5275 
     54 N          32.1381   31.6044    6.7649 N.am      9 UNK        -0.4246 
     55 CA         33.2031   32.5032    7.2385 C.3       9 UNK         0.0261 
     56 CB         32.6711   33.9051    7.5965 C.3       9 UNK        -0.1959 
     57 C          34.4223   32.5875    6.2973 C.2       9 UNK         0.5033 
     58 O          35.5504   32.6012    6.7921 O.2       9 UNK        -0.5390 
     59 N          34.2016   32.5961    4.9744 N.am      10 UNK        -0.4215 
     60 CA         35.2412   32.5931    3.9368 C.3       10 UNK         0.0240 
     61 CB         34.6064   32.8199    2.5551 C.3       10 UNK        -0.1982 
     62 C          36.1258   31.3304    3.9422 C.2       10 UNK         0.4970 
     63 O          37.2813   31.4154    3.5236 O.2       10 UNK        -0.4916 
     64 N          35.6005   30.2081    4.4563 N.am      11 UNK        -0.4279 
     65 CA         36.3683   29.0022    4.8144 C.3       11 UNK         0.1003 
     66 C          37.4950   29.2327    5.8696 C.2       11 UNK         0.5709 
     67 N          37.4773   30.3027    6.6579 N.am      11 UNK        -0.7358 
     68 O          38.4081   28.4168    5.9731 O.2       11 UNK        -0.4999 
     69 C69        35.4508   27.8428    5.2892 C.3       12 UNK        -0.0954 
     70 S70        34.3103   27.2169    4.0126 S.3       12 UNK        -0.2268 
     71 C71        32.8053   26.9588    5.0184 C.3       12 UNK         0.0203 
     72 H72        24.7483   23.4716    2.7475 H         1 UNK         0.0888 
     73 H73        23.6699   22.0860    2.8729 H         1 UNK         0.0888 
     74 H74        25.0665   22.2111    3.9477 H         1 UNK         0.0888 
     75 H75        26.8748   23.1765    1.7926 H         1 UNK         0.3017 
     76 H76        27.5242   20.6332    0.4748 H         1 UNK         0.0873 
     77 H77        29.6663   21.6046   -0.0344 H         1 UNK         0.0745 
     78 H78        29.3156   21.9449    1.6260 H         1 UNK         0.0745 
     79 H79        31.4358   23.2509    1.2351 H         1 UNK         0.0705 
     80 H80        31.5049   24.8614    0.5654 H         1 UNK         0.0705 
     81 H81        32.6841   25.6833    2.5158 H         1 UNK         0.1334 
     82 H82        30.3899   26.4423    6.0658 H         1 UNK         0.1417 
     83 H83        28.7997   23.9566    2.9756 H         1 UNK         0.1562 
     84 H84        28.1134   25.7181    6.2216 H         1 UNK         0.0748 
     85 H85        28.1751   24.0147    5.8383 H         1 UNK         0.0748 
     86 H86        27.2515   27.4773    4.7008 H         1 UNK         0.0940 
     87 H87        25.6643   27.3343    4.0036 H         1 UNK         0.0940 
     88 H88        28.2979   26.8497    2.5298 H         1 UNK         0.0703 
     89 H89        27.2139   25.8610    0.9073 H         1 UNK         0.3081 
     90 H90        24.6169   24.8429    0.1431 H         1 UNK         0.0719 
     91 H91        23.4485   25.8490   -1.8309 H         1 UNK         0.0809 
     92 H92        23.9769   27.4541   -1.3266 H         1 UNK         0.0809 
     93 H93        22.8716   26.5290   -0.3200 H         1 UNK         0.0809 
     94 H94        26.1548   24.5696   -1.4084 H         1 UNK         0.2990 
     95 H95        27.5723   26.3183   -3.7731 H         1 UNK         0.0690 
     96 H96        30.0149   26.1871   -3.1873 H         1 UNK         0.0788 
     97 H97        29.6030   26.2927   -1.4766 H         1 UNK         0.0788 
     98 H98        29.2504   27.6325   -2.5541 H         1 UNK         0.0788 
     99 H99        28.5614   24.0660   -2.1179 H         1 UNK         0.2993 
    100 H100       26.4675   21.7175   -3.6889 H         1 UNK         0.0949 
    101 H101       28.2883   21.8206   -5.4051 H         1 UNK         0.0767 
    102 H102       29.4942   21.9709   -4.1343 H         1 UNK         0.0767 
    103 H103       28.5431   20.4922   -4.2869 H         1 UNK         0.0767 
    104 H104       28.6182   21.3227   -1.8904 H         1 UNK         0.3013 
    105 H105       27.3073   28.4683    0.1970 H         1 UNK         0.3121 
    106 H106       27.1777   31.1874    1.0585 H         1 UNK         0.0774 
    107 H107       27.8412   31.6832   -1.2918 H         1 UNK         0.0815 
    108 H108       28.2640   29.9964   -1.5508 H         1 UNK         0.0815 
    109 H109       26.5883   30.4536   -1.2468 H         1 UNK         0.0815 
    110 H110       29.7993   28.9387    1.0031 H         1 UNK         0.2987 
    111 H111       31.9591   30.9041    1.1820 H         1 UNK         0.0949 
    112 H112       31.9319   27.8578    1.4996 H         1 UNK         0.0806 
    113 H113       32.3124   28.7341    0.0180 H         1 UNK         0.0806 
    114 H114       33.3713   28.8613    1.4112 H         1 UNK         0.0806 
    115 H115       29.6146   30.2620    3.4001 H         1 UNK         0.3010 
    116 H116       30.8874   29.6563    5.8145 H         1 UNK         0.0829 
    117 H117       28.4514   29.7965    5.6554 H         1 UNK         0.0813 
    118 H118       28.9802   30.9650    6.8508 H         1 UNK         0.0813 
    119 H119       28.5188   31.5106    5.2432 H         1 UNK         0.0813 
    120 H120       32.1027   30.7158    7.2458 H         1 UNK         0.3038 
    121 H121       33.5645   32.0531    8.1647 H         1 UNK         0.0769 
    122 H122       33.4490   34.5021    8.0742 H         1 UNK         0.0811 
    123 H123       31.8343   33.8465    8.2925 H         1 UNK         0.0811 
    124 H124       32.3391   34.4576    6.7173 H         1 UNK         0.0811 
    125 H125       33.2347   32.5757    4.6636 H         1 UNK         0.3204 
    126 H126       35.8979   33.4405    4.1441 H         1 UNK         0.0748 
    127 H127       35.3751   32.9167    1.7872 H         1 UNK         0.0771 
    128 H128       33.9624   31.9921    2.2623 H         1 UNK         0.0771 
    129 H129       34.0116   33.7332    2.5346 H         1 UNK         0.0771 
    130 H130       34.6041   30.1849    4.6392 H         1 UNK         0.2980 
    131 H131       36.8737   28.6746    3.9042 H         1 UNK         0.0545 
    132 H132       36.7470   31.0029    6.5866 H         1 UNK         0.3459 
    133 H133       38.2189   30.4258    7.3284 H         1 UNK         0.3459 
    134 H134       34.8806   28.1615    6.1638 H         1 UNK         0.0616 
    135 H135       36.0464   26.9871    5.6138 H         1 UNK         0.0616 
    136 H136       33.0944   26.4487    5.9384 H         1 UNK         0.0634 
    137 H137       32.4219   27.9356    5.3116 H         1 UNK         0.0634 
@<TRIPOS>BOND
     1    1    2 1    
     2    1   72 1    
     3    1   73 1    
     4    1   74 1    
     5    2    3 2    
     6    2    4 am   BACKBONE|DICT|INTERRES
     7    4    5 1    
     8    4   75 1    
     9    5    6 1    
    10    5   35 1    
    11    5   76 1    
    12    6    7 1    
    13    6   77 1    
    14    6   78 1    
    15    7    8 1    
    16    8    9 1    
    17    8   79 1    
    18    8   80 1    
    19    9   10 ar   
    20    9   14 ar   
    21   10   11 ar   
    22   10   81 1    
    23   11   12 ar   
    24   11   71 1    
    25   12   13 ar   
    26   12   82 1    
    27   13   14 ar   
    28   13   15 1    
    29   14   83 1    
    30   15   16 1    
    31   15   84 1    
    32   15   85 1    
    33   16   17 1    
    34   17   18 1    
    35   17   86 1    
    36   17   87 1    
    37   18   19 1    
    38   18   37 1    
    39   18   88 1    
    40   19   20 am   BACKBONE|DICT|INTERRES
    41   19   89 1    
    42   20   21 2    
    43   20   22 1    
    44   22   23 1    
    45   22   24 1    
    46   22   90 1    
    47   23   91 1    
    48   23   92 1    
    49   23   93 1    
    50   24   25 am   BACKBONE|DICT|INTERRES
    51   24   94 1    
    52   25   26 2    
    53   25   27 1    
    54   27   28 1    
    55   27   29 1    
    56   27   95 1    
    57   28   96 1    
    58   28   97 1    
    59   28   98 1    
    60   29   30 am   BACKBONE|DICT|INTERRES
    61   29   99 1    
    62   30   31 2    
    63   30   32 1    
    64   32   33 1    
    65   32   34 1    
    66   32  100 1    
    67   33  101 1    
    68   33  102 1    
    69   33  103 1    
    70   34   35 am   BACKBONE|DICT|INTERRES
    71   34  104 1    
    72   35   36 2    
    73   37   38 2    
    74   37   39 am   BACKBONE|DICT|INTERRES
    75   39   40 1    
    76   39  105 1    
    77   40   41 1    
    78   40   42 1    
    79   40  106 1    
    80   41  107 1    
    81   41  108 1    
    82   41  109 1    
    83   42   43 2    
    84   42   44 am   BACKBONE|DICT|INTERRES
    85   44   45 1    
    86   44  110 1    
    87   45   46 1    
    88   45   47 1    
    89   45  111 1    
    90   46  112 1    
    91   46  113 1    
    92   46  114 1    
    93   47   48 2    
    94   47   49 am   BACKBONE|DICT|INTERRES
    95   49   50 1    
    96   49  115 1    
    97   50   51 1    
    98   50   52 1    
    99   50  116 1    
   100   51  117 1    
   101   51  118 1    
   102   51  119 1    
   103   52   53 2    
   104   52   54 am   BACKBONE|DICT|INTERRES
   105   54   55 1    
   106   54  120 1    
   107   55   56 1    
   108   55   57 1    
   109   55  121 1    
   110   56  122 1    
   111   56  123 1    
   112   56  124 1    
   113   57   58 2    
   114   57   59 am   BACKBONE|DICT|INTERRES
   115   59   60 1    
   116   59  125 1    
   117   60   61 1    
   118   60   62 1    
   119   60  126 1    
   120   61  127 1    
   121   61  128 1    
   122   61  129 1    
   123   62   63 2    
   124   62   64 am   BACKBONE|DICT|INTERRES
   125   64   65 1    
   126   64  130 1    
   127   65   66 1    
   128   65   69 1    
   129   65  131 1    
   130   66   67 am   BACKBONE|DICT|INTERRES
   131   66   68 2    
   132   67  132 1    
   133   67  133 1    
   134   69   70 1    
   135   69  134 1    
   136   69  135 1    
   137   70   71 1    
   138   71  136 1    
   139   71  137 1    
@<TRIPOS>SUBSTRUCTURE
     1 UNK         1 GROUP             0       ****    0 ROOT    
