@<TRIPOS>MOLECULE
3R136
137   139    1
SMALL
USER_CHARGES


@<TRIPOS>ATOM
      1 CA         30.3350   20.2091   -3.2800 C.3       0 UNK        -0.1979 
      2 C          30.2217   21.7024   -3.0101 C.2       0 UNK         0.4864 
      3 O          30.2523   22.4983   -3.9504 O.2       0 UNK        -0.5359 
      4 N          30.1004   22.0876   -1.7339 N.am      1 UNK        -0.4318 
      5 CA         29.8999   23.4694   -1.2886 C.3       1 UNK         0.0824 
      6 C6         30.2674   23.6558    0.2087 C.3       12 UNK        -0.0944 
      7 S7         29.4492   22.4724    1.3348 S.3       12 UNK        -0.2672 
      8 C8         30.8612   21.8707    2.3107 C.3       12 UNK         0.0333 
      9 C9         31.3189   22.9036    3.3301 C.ar      12 UNK        -0.0807 
     10 C10        32.5182   23.6048    3.1528 C.ar      12 UNK        -0.0894 
     11 C11        32.9553   24.5130    4.1231 C.ar      12 UNK        -0.0804 
     12 C12        32.1817   24.7151    5.2689 C.ar      12 UNK        -0.0824 
     13 C13        30.9642   24.0544    5.4374 C.ar      12 UNK        -0.0762 
     14 C14        30.5438   23.1381    4.4706 C.ar      12 UNK        -0.0782 
     15 C15        30.1179   24.3247    6.6734 C.3       12 UNK         0.0230 
     16 S16        28.5392   25.1453    6.2781 S.3       12 UNK        -0.2608 
     17 C17        29.0637   26.6985    5.4650 C.3       12 UNK        -0.0989 
     18 CA         28.4974   26.8147    4.0202 C.3       5 UNK         0.0716 
     19 N          27.0306   26.7157    3.9721 N.am      5 UNK        -0.4135 
     20 C          26.1478   27.5733    4.5115 C.2       4 UNK         0.5031 
     21 O          26.4633   28.6089    5.1006 O.2       4 UNK        -0.5229 
     22 CA         24.6574   27.1866    4.4023 C.3       4 UNK         0.0329 
     23 CB         23.7036   28.3889    4.5791 C.3       4 UNK        -0.2001 
     24 N          24.3443   26.4264    3.1853 N.am      4 UNK        -0.4303 
     25 C          24.4221   26.8611    1.9196 C.2       3 UNK         0.5044 
     26 O          24.6733   28.0209    1.5894 O.2       3 UNK        -0.5152 
     27 CA         24.1584   25.7987    0.8394 C.3       3 UNK         0.0319 
     28 CB         22.6874   25.8459    0.3948 C.3       3 UNK        -0.2001 
     29 N          25.0188   25.9190   -0.3421 N.am      3 UNK        -0.4354 
     30 C          26.3581   25.9807   -0.3514 C.2       2 UNK         0.4964 
     31 O          27.0681   26.0545    0.6581 O.2       2 UNK        -0.5047 
     32 CA         27.0138   25.9562   -1.7432 C.3       2 UNK         0.0288 
     33 CB         27.1922   27.3753   -2.3033 C.3       2 UNK        -0.2113 
     34 N          28.3142   25.2899   -1.6867 N.am      2 UNK        -0.4145 
     35 C          28.4674   23.9628   -1.5800 C.2       1 UNK         0.5006 
     36 O          27.5356   23.1565   -1.6688 O.2       1 UNK        -0.5103 
     37 C          28.9883   28.0717    3.2665 C.2       5 UNK         0.5055 
     38 O          29.7949   28.8437    3.7925 O.2       5 UNK        -0.5220 
     39 N          28.4635   28.2618    2.0479 N.am      6 UNK        -0.4450 
     40 CA         28.6362   29.4684    1.2350 C.3       6 UNK         0.0367 
     41 CB         27.2585   29.9146    0.7142 C.3       6 UNK        -0.1929 
     42 C          29.6546   29.2888    0.0948 C.2       6 UNK         0.5070 
     43 O          29.6364   30.0663   -0.8598 O.2       6 UNK        -0.5237 
     44 N          30.5424   28.2877    0.2012 N.am      7 UNK        -0.4739 
     45 CA         31.6757   28.0829   -0.7166 C.3       7 UNK         0.0276 
     46 CB         32.2748   26.6880   -0.4850 C.3       7 UNK        -0.1927 
     47 C          32.7688   29.1659   -0.6034 C.2       7 UNK         0.5013 
     48 O          33.5916   29.3003   -1.5099 O.2       7 UNK        -0.5193 
     49 N          32.7404   29.9200    0.4964 N.am      8 UNK        -0.4253 
     50 CA         33.5153   31.1202    0.7692 C.3       8 UNK         0.0242 
     51 CB         34.7776   30.7418    1.5650 C.3       8 UNK        -0.2000 
     52 C          32.5993   32.0659    1.5594 C.2       8 UNK         0.4948 
     53 O          31.4614   31.6971    1.8729 O.2       8 UNK        -0.5275 
     54 N          33.1037   33.2596    1.8964 N.am      9 UNK        -0.4246 
     55 CA         32.4304   34.2402    2.7551 C.3       9 UNK         0.0261 
     56 CB         33.1560   35.5936    2.6359 C.3       9 UNK        -0.1959 
     57 C          32.3573   33.7363    4.2111 C.2       9 UNK         0.5033 
     58 O          33.1709   34.1471    5.0403 O.2       9 UNK        -0.5390 
     59 N          31.4105   32.8173    4.4528 N.am      10 UNK        -0.4215 
     60 CA         31.2469   31.9549    5.6263 C.3       10 UNK         0.0240 
     61 CB         31.0676   32.7652    6.9283 C.3       10 UNK        -0.1982 
     62 C          32.4037   30.9442    5.6936 C.2       10 UNK         0.4970 
     63 O          33.4018   31.1897    6.3735 O.2       10 UNK        -0.4916 
     64 N          32.2559   29.8389    4.9506 N.am      11 UNK        -0.4279 
     65 CA         33.2319   28.7395    4.8687 C.3       11 UNK         0.1003 
     66 C          33.4939   28.0296    6.2289 C.2       11 UNK         0.5709 
     67 N          32.5123   27.9463    7.1210 N.am      11 UNK        -0.7358 
     68 O          34.6028   27.5711    6.4885 O.2       11 UNK        -0.4999 
     69 C69        32.8193   27.7376    3.7542 C.3       12 UNK        -0.0954 
     70 S70        34.1838   26.7888    2.9979 S.3       12 UNK        -0.2268 
     71 C71        34.2836   25.2453    3.9723 C.3       12 UNK         0.0203 
     72 H72        29.5121   19.8793   -3.9137 H         1 UNK         0.0888 
     73 H73        31.2707   19.9901   -3.7936 H         1 UNK         0.0888 
     74 H74        30.3089   19.6256   -2.3597 H         1 UNK         0.0888 
     75 H75        30.0367   21.3928   -1.0034 H         1 UNK         0.3017 
     76 H76        30.5751   24.0940   -1.8771 H         1 UNK         0.0873 
     77 H77        30.0293   24.6640    0.5534 H         1 UNK         0.0745 
     78 H78        31.3487   23.5627    0.3169 H         1 UNK         0.0745 
     79 H79        30.5622   20.9612    2.8337 H         1 UNK         0.0705 
     80 H80        31.6773   21.5829    1.6460 H         1 UNK         0.0705 
     81 H81        33.1214   23.4317    2.2720 H         1 UNK         0.1334 
     82 H82        32.5252   25.3977    6.0314 H         1 UNK         0.1417 
     83 H83        29.6089   22.6104    4.6036 H         1 UNK         0.1562 
     84 H84        30.6621   24.9379    7.3935 H         1 UNK         0.0748 
     85 H85        29.9076   23.3794    7.1755 H         1 UNK         0.0748 
     86 H86        30.1518   26.7527    5.4559 H         1 UNK         0.0940 
     87 H87        28.7322   27.5377    6.0787 H         1 UNK         0.0940 
     88 H88        28.8789   25.9639    3.4523 H         1 UNK         0.0703 
     89 H89        26.6683   25.9082    3.4866 H         1 UNK         0.3081 
     90 H90        24.4717   26.5052    5.2340 H         1 UNK         0.0719 
     91 H91        23.8890   29.1677    3.8388 H         1 UNK         0.0809 
     92 H92        22.6604   28.0852    4.4941 H         1 UNK         0.0809 
     93 H93        23.8281   28.8439    5.5625 H         1 UNK         0.0809 
     94 H94        24.1000   25.4568    3.3365 H         1 UNK         0.2990 
     95 H95        24.3561   24.8146    1.2692 H         1 UNK         0.0690 
     96 H96        22.4559   25.0436   -0.3061 H         1 UNK         0.0788 
     97 H97        22.4440   26.7945   -0.0861 H         1 UNK         0.0788 
     98 H98        22.0155   25.7319    1.2468 H         1 UNK         0.0788 
     99 H99        24.5401   25.9071   -1.2308 H         1 UNK         0.2993 
    100 H100       26.3670   25.3974   -2.4239 H         1 UNK         0.0949 
    101 H101       27.5658   27.3506   -3.3272 H         1 UNK         0.0767 
    102 H102       26.2449   27.9162   -2.3178 H         1 UNK         0.0767 
    103 H103       27.8932   27.9589   -1.7099 H         1 UNK         0.0767 
    104 H104       29.1173   25.8890   -1.5706 H         1 UNK         0.3013 
    105 H105       27.8470   27.5481    1.6648 H         1 UNK         0.3121 
    106 H106       29.0225   30.2782    1.8577 H         1 UNK         0.0774 
    107 H107       27.3295   30.8340    0.1319 H         1 UNK         0.0815 
    108 H108       26.7995   29.1567    0.0799 H         1 UNK         0.0815 
    109 H109       26.5737   30.1111    1.5394 H         1 UNK         0.0815 
    110 H110       30.4897   27.6889    1.0122 H         1 UNK         0.2987 
    111 H111       31.2987   28.1267   -1.7409 H         1 UNK         0.0949 
    112 H112       32.5328   26.5222    0.5606 H         1 UNK         0.0806 
    113 H113       31.5778   25.9131   -0.7892 H         1 UNK         0.0806 
    114 H114       33.1830   26.5438   -1.0721 H         1 UNK         0.0806 
    115 H115       31.9635   29.7968    1.1336 H         1 UNK         0.3010 
    116 H116       33.7909   31.6077   -0.1684 H         1 UNK         0.0829 
    117 H117       35.3753   30.0036    1.0296 H         1 UNK         0.0813 
    118 H118       35.4163   31.6085    1.7369 H         1 UNK         0.0813 
    119 H119       34.5261   30.3209    2.5381 H         1 UNK         0.0813 
    120 H120       34.0496   33.4817    1.6208 H         1 UNK         0.3038 
    121 H121       31.4087   34.3785    2.3939 H         1 UNK         0.0769 
    122 H122       32.6822   36.3456    3.2683 H         1 UNK         0.0811 
    123 H123       33.1295   35.9692    1.6129 H         1 UNK         0.0811 
    124 H124       34.2010   35.5236    2.9407 H         1 UNK         0.0811 
    125 H125       30.9102   32.4985    3.6275 H         1 UNK         0.3204 
    126 H126       30.3258   31.3907    5.4677 H         1 UNK         0.0748 
    127 H127       30.8497   32.1021    7.7662 H         1 UNK         0.0771 
    128 H128       31.9609   33.3312    7.1929 H         1 UNK         0.0771 
    129 H129       30.2387   33.4680    6.8455 H         1 UNK         0.0771 
    130 H130       31.3823   29.6857    4.4519 H         1 UNK         0.2980 
    131 H131       34.1779   29.1966    4.5749 H         1 UNK         0.0545 
    132 H132       31.6111   28.3524    6.9313 H         1 UNK         0.3459 
    133 H133       32.6934   27.5110    8.0113 H         1 UNK         0.3459 
    134 H134       32.0197   27.0784    4.0836 H         1 UNK         0.0616 
    135 H135       32.3863   28.2953    2.9229 H         1 UNK         0.0616 
    136 H136       35.0053   24.5850    3.4893 H         1 UNK         0.0634 
    137 H137       34.7037   25.4654    4.9534 H         1 UNK         0.0634 
@<TRIPOS>BOND
     1    1    2 1    
     2    1   72 1    
     3    1   73 1    
     4    1   74 1    
     5    2    3 2    
     6    2    4 am   BACKBONE|DICT|INTERRES
     7    4    5 1    
     8    4   75 1    
     9    5    6 1    
    10    5   35 1    
    11    5   76 1    
    12    6    7 1    
    13    6   77 1    
    14    6   78 1    
    15    7    8 1    
    16    8    9 1    
    17    8   79 1    
    18    8   80 1    
    19    9   10 ar   
    20    9   14 ar   
    21   10   11 ar   
    22   10   81 1    
    23   11   12 ar   
    24   11   71 1    
    25   12   13 ar   
    26   12   82 1    
    27   13   14 ar   
    28   13   15 1    
    29   14   83 1    
    30   15   16 1    
    31   15   84 1    
    32   15   85 1    
    33   16   17 1    
    34   17   18 1    
    35   17   86 1    
    36   17   87 1    
    37   18   19 1    
    38   18   37 1    
    39   18   88 1    
    40   19   20 am   BACKBONE|DICT|INTERRES
    41   19   89 1    
    42   20   21 2    
    43   20   22 1    
    44   22   23 1    
    45   22   24 1    
    46   22   90 1    
    47   23   91 1    
    48   23   92 1    
    49   23   93 1    
    50   24   25 am   BACKBONE|DICT|INTERRES
    51   24   94 1    
    52   25   26 2    
    53   25   27 1    
    54   27   28 1    
    55   27   29 1    
    56   27   95 1    
    57   28   96 1    
    58   28   97 1    
    59   28   98 1    
    60   29   30 am   BACKBONE|DICT|INTERRES
    61   29   99 1    
    62   30   31 2    
    63   30   32 1    
    64   32   33 1    
    65   32   34 1    
    66   32  100 1    
    67   33  101 1    
    68   33  102 1    
    69   33  103 1    
    70   34   35 am   BACKBONE|DICT|INTERRES
    71   34  104 1    
    72   35   36 2    
    73   37   38 2    
    74   37   39 am   BACKBONE|DICT|INTERRES
    75   39   40 1    
    76   39  105 1    
    77   40   41 1    
    78   40   42 1    
    79   40  106 1    
    80   41  107 1    
    81   41  108 1    
    82   41  109 1    
    83   42   43 2    
    84   42   44 am   BACKBONE|DICT|INTERRES
    85   44   45 1    
    86   44  110 1    
    87   45   46 1    
    88   45   47 1    
    89   45  111 1    
    90   46  112 1    
    91   46  113 1    
    92   46  114 1    
    93   47   48 2    
    94   47   49 am   BACKBONE|DICT|INTERRES
    95   49   50 1    
    96   49  115 1    
    97   50   51 1    
    98   50   52 1    
    99   50  116 1    
   100   51  117 1    
   101   51  118 1    
   102   51  119 1    
   103   52   53 2    
   104   52   54 am   BACKBONE|DICT|INTERRES
   105   54   55 1    
   106   54  120 1    
   107   55   56 1    
   108   55   57 1    
   109   55  121 1    
   110   56  122 1    
   111   56  123 1    
   112   56  124 1    
   113   57   58 2    
   114   57   59 am   BACKBONE|DICT|INTERRES
   115   59   60 1    
   116   59  125 1    
   117   60   61 1    
   118   60   62 1    
   119   60  126 1    
   120   61  127 1    
   121   61  128 1    
   122   61  129 1    
   123   62   63 2    
   124   62   64 am   BACKBONE|DICT|INTERRES
   125   64   65 1    
   126   64  130 1    
   127   65   66 1    
   128   65   69 1    
   129   65  131 1    
   130   66   67 am   BACKBONE|DICT|INTERRES
   131   66   68 2    
   132   67  132 1    
   133   67  133 1    
   134   69   70 1    
   135   69  134 1    
   136   69  135 1    
   137   70   71 1    
   138   71  136 1    
   139   71  137 1    
@<TRIPOS>SUBSTRUCTURE
     1 UNK         1 GROUP             0       ****    0 ROOT    
