@<TRIPOS>MOLECULE
3R136
137   139    1
SMALL
USER_CHARGES


@<TRIPOS>ATOM
      1 CA         24.3889   19.6603    1.3833 C.3       0 UNK        -0.1979 
      2 C          25.8952   19.6765    1.1683 C.2       0 UNK         0.4864 
      3 O          26.5816   18.7381    1.5758 O.2       0 UNK        -0.5359 
      4 N          26.4119   20.7319    0.5315 N.am      1 UNK        -0.4318 
      5 CA         27.8217   20.9230    0.1990 C.3       1 UNK         0.0824 
      6 C6         28.6480   21.4239    1.4144 C.3       12 UNK        -0.0944 
      7 S7         30.4162   20.9829    1.2956 S.3       12 UNK        -0.2672 
      8 C8         30.8859   20.8555    3.0538 C.3       12 UNK         0.0333 
      9 C9         31.0582   22.2305    3.6829 C.ar      12 UNK        -0.0807 
     10 C10        32.3300   22.7994    3.8068 C.ar      12 UNK        -0.0894 
     11 C11        32.4839   24.0861    4.3346 C.ar      12 UNK        -0.0804 
     12 C12        31.3536   24.8055    4.7337 C.ar      12 UNK        -0.0824 
     13 C13        30.0791   24.2451    4.6178 C.ar      12 UNK        -0.0762 
     14 C14        29.9412   22.9474    4.1192 C.ar      12 UNK        -0.0782 
     15 C15        28.8456   25.0561    4.9782 C.3       12 UNK         0.0230 
     16 S16        27.8886   25.4243    3.4770 S.3       12 UNK        -0.2608 
     17 C17        26.8847   26.8482    4.0057 C.3       12 UNK        -0.0989 
     18 CA         27.5122   28.2012    3.5845 C.3       5 UNK         0.0716 
     19 N          27.8343   28.2429    2.1532 N.am      5 UNK        -0.4135 
     20 C          28.3917   29.2629    1.4881 C.2       4 UNK         0.5031 
     21 O          28.6913   30.3399    2.0071 O.2       4 UNK        -0.5229 
     22 CA         28.6948   29.0164   -0.0029 C.3       4 UNK         0.0329 
     23 CB         29.2505   30.2695   -0.7057 C.3       4 UNK        -0.2001 
     24 N          29.6444   27.9138   -0.1868 N.am      4 UNK        -0.4303 
     25 C          29.3332   26.6115   -0.1707 C.2       3 UNK         0.5044 
     26 O          28.1904   26.1870    0.0157 O.2       3 UNK        -0.5152 
     27 CA         30.5070   25.6299   -0.3448 C.3       3 UNK         0.0319 
     28 CB         31.1322   25.2895    1.0162 C.3       3 UNK        -0.2001 
     29 N          30.1047   24.3821   -0.9927 N.am      3 UNK        -0.4354 
     30 C          29.7283   24.2601   -2.2737 C.2       2 UNK         0.4964 
     31 O          29.7069   25.1984   -3.0717 O.2       2 UNK        -0.5047 
     32 CA         29.3394   22.8518   -2.7653 C.3       2 UNK         0.0288 
     33 CB         30.4604   22.2580   -3.6352 C.3       2 UNK        -0.2113 
     34 N          29.0433   21.9194   -1.6732 N.am      2 UNK        -0.4145 
     35 C          27.8935   21.8992   -0.9878 C.2       1 UNK         0.5006 
     36 O          26.9251   22.6200   -1.2493 O.2       1 UNK        -0.5103 
     37 C          26.5850   29.3626    3.9880 C.2       5 UNK         0.5055 
     38 O          25.5203   29.5178    3.3855 O.2       5 UNK        -0.5220 
     39 N          27.0172   30.1642    4.9724 N.am      6 UNK        -0.4450 
     40 CA         26.3720   31.3621    5.5379 C.3       6 UNK         0.0367 
     41 CB         25.0004   31.0243    6.1554 C.3       6 UNK        -0.1929 
     42 C          26.2637   32.5679    4.5813 C.2       6 UNK         0.5070 
     43 O          26.2973   33.7051    5.0520 O.2       6 UNK        -0.5237 
     44 N          26.1473   32.3183    3.2716 N.am      7 UNK        -0.4739 
     45 CA         26.1074   33.3219    2.2066 C.3       7 UNK         0.0276 
     46 CB         25.6991   32.6384    0.8916 C.3       7 UNK        -0.1927 
     47 C          27.4375   34.0743    2.0292 C.2       7 UNK         0.5013 
     48 O          27.4193   35.2388    1.6273 O.2       7 UNK        -0.5193 
     49 N          28.5563   33.4080    2.3327 N.am      8 UNK        -0.4253 
     50 CA         29.9068   33.9574    2.2990 C.3       8 UNK         0.0242 
     51 CB         30.4999   33.7588    0.8904 C.3       8 UNK        -0.2000 
     52 C          30.7584   33.2704    3.3752 C.2       8 UNK         0.4948 
     53 O          30.2788   32.3700    4.0716 O.2       8 UNK        -0.5275 
     54 N          32.0242   33.6941    3.4820 N.am      9 UNK        -0.4246 
     55 CA         33.0553   33.0422    4.2901 C.3       9 UNK         0.0261 
     56 CB         34.2211   34.0238    4.5111 C.3       9 UNK        -0.1959 
     57 C          33.5070   31.7452    3.5951 C.2       9 UNK         0.5033 
     58 O          34.4592   31.7671    2.8129 O.2       9 UNK        -0.5390 
     59 N          32.7577   30.6639    3.8390 N.am      10 UNK        -0.4215 
     60 CA         32.9302   29.3452    3.2310 C.3       10 UNK         0.0240 
     61 CB         31.7878   28.4319    3.7047 C.3       10 UNK        -0.1982 
     62 C          34.2945   28.7045    3.5420 C.2       10 UNK         0.4970 
     63 O          34.7325   28.7307    4.6949 O.2       10 UNK        -0.4916 
     64 N          34.8946   28.0987    2.5102 N.am      11 UNK        -0.4279 
     65 CA         36.1652   27.3544    2.5444 C.3       11 UNK         0.1003 
     66 C          37.3942   28.2421    2.9149 C.2       11 UNK         0.5709 
     67 N          38.4767   27.6681    3.4254 N.am      11 UNK        -0.7358 
     68 O          37.4030   29.4500    2.6853 O.2       11 UNK        -0.4999 
     69 C69        36.0708   26.0255    3.3543 C.3       12 UNK        -0.0954 
     70 S70        34.6502   24.9898    2.8596 S.3       12 UNK        -0.2268 
     71 C71        33.8671   24.7032    4.4759 C.3       12 UNK         0.0203 
     72 H72        23.9101   20.5519    0.9786 H         1 UNK         0.0888 
     73 H73        23.9496   18.7893    0.8977 H         1 UNK         0.0888 
     74 H74        24.1625   19.6080    2.4479 H         1 UNK         0.0888 
     75 H75        25.8134   21.4643    0.1667 H         1 UNK         0.3017 
     76 H76        28.2117   19.9606   -0.1410 H         1 UNK         0.0873 
     77 H77        28.5464   22.5026    1.5543 H         1 UNK         0.0745 
     78 H78        28.2610   20.9693    2.3272 H         1 UNK         0.0745 
     79 H79        30.1418   20.2758    3.6021 H         1 UNK         0.0705 
     80 H80        31.8183   20.2933    3.1246 H         1 UNK         0.0705 
     81 H81        33.2013   22.2505    3.4762 H         1 UNK         0.1334 
     82 H82        31.4647   25.8065    5.1261 H         1 UNK         0.1417 
     83 H83        28.9534   22.5184    4.0271 H         1 UNK         0.1562 
     84 H84        29.1294   25.9883    5.4693 H         1 UNK         0.0748 
     85 H85        28.2252   24.5019    5.6839 H         1 UNK         0.0748 
     86 H86        26.7368   26.8068    5.0868 H         1 UNK         0.0940 
     87 H87        25.8937   26.7319    3.5615 H         1 UNK         0.0940 
     88 H88        28.4585   28.3132    4.1173 H         1 UNK         0.0703 
     89 H89        27.6618   27.3863    1.6376 H         1 UNK         0.3081 
     90 H90        27.7493   28.7588   -0.4853 H         1 UNK         0.0719 
     91 H91        30.2221   30.5570   -0.3034 H         1 UNK         0.0809 
     92 H92        29.3671   30.1040   -1.7768 H         1 UNK         0.0809 
     93 H93        28.5803   31.1214   -0.5822 H         1 UNK         0.0809 
     94 H94        30.6115   28.1772   -0.3085 H         1 UNK         0.2990 
     95 H95        31.2681   26.1012   -0.9704 H         1 UNK         0.0690 
     96 H96        31.9655   24.5936    0.9151 H         1 UNK         0.0788 
     97 H97        30.4050   24.8404    1.6939 H         1 UNK         0.0788 
     98 H98        31.5212   26.1840    1.4986 H         1 UNK         0.0788 
     99 H99        30.0713   23.5631   -0.4048 H         1 UNK         0.2993 
    100 H100       28.4468   22.9607   -3.3857 H         1 UNK         0.0949 
    101 H101       30.6868   22.9105   -4.4798 H         1 UNK         0.0767 
    102 H102       31.3835   22.1248   -3.0696 H         1 UNK         0.0767 
    103 H103       30.1737   21.2892   -4.0451 H         1 UNK         0.0767 
    104 H104       29.7902   21.3011   -1.3868 H         1 UNK         0.3013 
    105 H105       27.9351   29.9736    5.3513 H         1 UNK         0.3121 
    106 H106       27.0241   31.6828    6.3521 H         1 UNK         0.0774 
    107 H107       24.5853   31.8898    6.6735 H         1 UNK         0.0815 
    108 H108       24.2742   30.7240    5.3996 H         1 UNK         0.0815 
    109 H109       25.0803   30.2183    6.8846 H         1 UNK         0.0815 
    110 H110       26.0716   31.3448    2.9938 H         1 UNK         0.2987 
    111 H111       25.3446   34.0592    2.4663 H         1 UNK         0.0949 
    112 H112       26.4151   31.8692    0.5995 H         1 UNK         0.0806 
    113 H113       24.7187   32.1692    0.9759 H         1 UNK         0.0806 
    114 H114       25.6437   33.3608    0.0760 H         1 UNK         0.0806 
    115 H115       28.4959   32.4496    2.6654 H         1 UNK         0.3010 
    116 H116       29.8723   35.0229    2.5362 H         1 UNK         0.0829 
    117 H117       29.8609   34.1979    0.1239 H         1 UNK         0.0813 
    118 H118       31.4789   34.2292    0.7964 H         1 UNK         0.0813 
    119 H119       30.6212   32.7010    0.6569 H         1 UNK         0.0813 
    120 H120       32.3418   34.4265    2.8635 H         1 UNK         0.3038 
    121 H121       32.6403   32.7883    5.2682 H         1 UNK         0.0769 
    122 H122       33.8947   34.9100    5.0557 H         1 UNK         0.0811 
    123 H123       34.6624   34.3530    3.5694 H         1 UNK         0.0811 
    124 H124       35.0145   33.5577    5.0968 H         1 UNK         0.0811 
    125 H125       31.9484   30.7840    4.4342 H         1 UNK         0.3204 
    126 H126       32.8414   29.4736    2.1502 H         1 UNK         0.0748 
    127 H127       30.8208   28.7942    3.3563 H         1 UNK         0.0771 
    128 H128       31.9135   27.4190    3.3256 H         1 UNK         0.0771 
    129 H129       31.7517   28.3652    4.7928 H         1 UNK         0.0771 
    130 H130       34.4610   28.1543    1.6011 H         1 UNK         0.2980 
    131 H131       36.3455   27.0756    1.5058 H         1 UNK         0.0545 
    132 H132       39.2773   28.2413    3.6415 H         1 UNK         0.3459 
    133 H133       38.5073   26.6768    3.6026 H         1 UNK         0.3459 
    134 H134       36.0221   26.2388    4.4233 H         1 UNK         0.0616 
    135 H135       36.9671   25.4220    3.2051 H         1 UNK         0.0616 
    136 H136       33.8055   25.6504    5.0146 H         1 UNK         0.0634 
    137 H137       34.5010   24.0451    5.0716 H         1 UNK         0.0634 
@<TRIPOS>BOND
     1    1    2 1    
     2    1   72 1    
     3    1   73 1    
     4    1   74 1    
     5    2    3 2    
     6    2    4 am   BACKBONE|DICT|INTERRES
     7    4    5 1    
     8    4   75 1    
     9    5    6 1    
    10    5   35 1    
    11    5   76 1    
    12    6    7 1    
    13    6   77 1    
    14    6   78 1    
    15    7    8 1    
    16    8    9 1    
    17    8   79 1    
    18    8   80 1    
    19    9   10 ar   
    20    9   14 ar   
    21   10   11 ar   
    22   10   81 1    
    23   11   12 ar   
    24   11   71 1    
    25   12   13 ar   
    26   12   82 1    
    27   13   14 ar   
    28   13   15 1    
    29   14   83 1    
    30   15   16 1    
    31   15   84 1    
    32   15   85 1    
    33   16   17 1    
    34   17   18 1    
    35   17   86 1    
    36   17   87 1    
    37   18   19 1    
    38   18   37 1    
    39   18   88 1    
    40   19   20 am   BACKBONE|DICT|INTERRES
    41   19   89 1    
    42   20   21 2    
    43   20   22 1    
    44   22   23 1    
    45   22   24 1    
    46   22   90 1    
    47   23   91 1    
    48   23   92 1    
    49   23   93 1    
    50   24   25 am   BACKBONE|DICT|INTERRES
    51   24   94 1    
    52   25   26 2    
    53   25   27 1    
    54   27   28 1    
    55   27   29 1    
    56   27   95 1    
    57   28   96 1    
    58   28   97 1    
    59   28   98 1    
    60   29   30 am   BACKBONE|DICT|INTERRES
    61   29   99 1    
    62   30   31 2    
    63   30   32 1    
    64   32   33 1    
    65   32   34 1    
    66   32  100 1    
    67   33  101 1    
    68   33  102 1    
    69   33  103 1    
    70   34   35 am   BACKBONE|DICT|INTERRES
    71   34  104 1    
    72   35   36 2    
    73   37   38 2    
    74   37   39 am   BACKBONE|DICT|INTERRES
    75   39   40 1    
    76   39  105 1    
    77   40   41 1    
    78   40   42 1    
    79   40  106 1    
    80   41  107 1    
    81   41  108 1    
    82   41  109 1    
    83   42   43 2    
    84   42   44 am   BACKBONE|DICT|INTERRES
    85   44   45 1    
    86   44  110 1    
    87   45   46 1    
    88   45   47 1    
    89   45  111 1    
    90   46  112 1    
    91   46  113 1    
    92   46  114 1    
    93   47   48 2    
    94   47   49 am   BACKBONE|DICT|INTERRES
    95   49   50 1    
    96   49  115 1    
    97   50   51 1    
    98   50   52 1    
    99   50  116 1    
   100   51  117 1    
   101   51  118 1    
   102   51  119 1    
   103   52   53 2    
   104   52   54 am   BACKBONE|DICT|INTERRES
   105   54   55 1    
   106   54  120 1    
   107   55   56 1    
   108   55   57 1    
   109   55  121 1    
   110   56  122 1    
   111   56  123 1    
   112   56  124 1    
   113   57   58 2    
   114   57   59 am   BACKBONE|DICT|INTERRES
   115   59   60 1    
   116   59  125 1    
   117   60   61 1    
   118   60   62 1    
   119   60  126 1    
   120   61  127 1    
   121   61  128 1    
   122   61  129 1    
   123   62   63 2    
   124   62   64 am   BACKBONE|DICT|INTERRES
   125   64   65 1    
   126   64  130 1    
   127   65   66 1    
   128   65   69 1    
   129   65  131 1    
   130   66   67 am   BACKBONE|DICT|INTERRES
   131   66   68 2    
   132   67  132 1    
   133   67  133 1    
   134   69   70 1    
   135   69  134 1    
   136   69  135 1    
   137   70   71 1    
   138   71  136 1    
   139   71  137 1    
@<TRIPOS>SUBSTRUCTURE
     1 UNK         1 GROUP             0       ****    0 ROOT    
