@<TRIPOS>MOLECULE
3R136
137   139    1
SMALL
USER_CHARGES


@<TRIPOS>ATOM
      1 CA         29.1052   17.5280   -0.0592 C.3       0 UNK        -0.1979 
      2 C          29.3449   19.0284   -0.1429 C.2       0 UNK         0.4864 
      3 O          30.3355   19.4572   -0.7368 O.2       0 UNK        -0.5359 
      4 N          28.4505   19.8284    0.4526 N.am      1 UNK        -0.4318 
      5 CA         28.4830   21.2925    0.4174 C.3       1 UNK         0.0824 
      6 C6         27.5709   21.8900    1.5184 C.3       12 UNK        -0.0944 
      7 S7         27.9829   23.6186    1.9215 S.3       12 UNK        -0.2672 
      8 C8         29.0461   23.4009    3.3820 C.3       12 UNK         0.0333 
      9 C9         29.4070   24.7511    3.9777 C.ar      12 UNK        -0.0807 
     10 C10        30.5532   25.4296    3.5549 C.ar      12 UNK        -0.0894 
     11 C11        30.8563   26.6971    4.0620 C.ar      12 UNK        -0.0804 
     12 C12        29.9994   27.2879    4.9975 C.ar      12 UNK        -0.0824 
     13 C13        28.8428   26.6215    5.4180 C.ar      12 UNK        -0.0762 
     14 C14        28.5669   25.3428    4.9237 C.ar      12 UNK        -0.0782 
     15 C15        27.8456   27.3072    6.3419 C.3       12 UNK         0.0230 
     16 S16        26.2259   27.5413    5.5278 S.3       12 UNK        -0.2608 
     17 C17        26.6315   28.7094    4.1816 C.3       12 UNK        -0.0989 
     18 CA         27.1073   28.0142    2.8736 C.3       5 UNK         0.0716 
     19 N          26.1908   26.9941    2.3640 N.am      5 UNK        -0.4135 
     20 C          24.9950   27.1861    1.7975 C.2       4 UNK         0.5031 
     21 O          24.4713   28.2870    1.6138 O.2       4 UNK        -0.5229 
     22 CA         24.2688   25.9040    1.3522 C.3       4 UNK         0.0329 
     23 CB         22.7729   25.9568    1.7107 C.3       4 UNK        -0.2001 
     24 N          24.4072   25.6012   -0.0768 N.am      4 UNK        -0.4303 
     25 C          25.5448   25.5264   -0.7838 C.2       3 UNK         0.5044 
     26 O          26.6560   25.8408   -0.3525 O.2       3 UNK        -0.5152 
     27 CA         25.3948   24.9725   -2.2117 C.3       3 UNK         0.0319 
     28 CB         25.1647   26.0922   -3.2465 C.3       3 UNK        -0.2001 
     29 N          26.5105   24.0819   -2.5587 N.am      3 UNK        -0.4354 
     30 C          27.7669   24.3896   -2.9124 C.2       2 UNK         0.4964 
     31 O          28.1596   25.5207   -3.1984 O.2       2 UNK        -0.5047 
     32 CA         28.7595   23.2105   -2.9302 C.3       2 UNK         0.0288 
     33 CB         30.1399   23.6020   -3.4923 C.3       2 UNK        -0.2113 
     34 N          28.9414   22.6442   -1.5896 N.am      2 UNK        -0.4145 
     35 C          28.0994   21.7903   -0.9923 C.2       1 UNK         0.5006 
     36 O          27.0498   21.3962   -1.5103 O.2       1 UNK        -0.5103 
     37 C          27.5815   29.0051    1.7925 C.2       5 UNK         0.5055 
     38 O          27.7148   30.2003    2.0658 O.2       5 UNK        -0.5220 
     39 N          27.8775   28.4925    0.5893 N.am      6 UNK        -0.4450 
     40 CA         28.6300   29.2235   -0.4310 C.3       6 UNK         0.0367 
     41 CB         28.6360   28.4202   -1.7380 C.3       6 UNK        -0.1929 
     42 C          30.0674   29.4813    0.0559 C.2       6 UNK         0.5070 
     43 O          30.7146   28.5507    0.5396 O.2       6 UNK        -0.5237 
     44 N          30.5236   30.7358   -0.0691 N.am      7 UNK        -0.4739 
     45 CA         31.8127   31.2518    0.4142 C.3       7 UNK         0.0276 
     46 CB         32.9916   30.6164   -0.3552 C.3       7 UNK        -0.1927 
     47 C          31.9704   31.1420    1.9454 C.2       7 UNK         0.5013 
     48 O          33.0498   30.7970    2.4299 O.2       7 UNK        -0.5193 
     49 N          30.8980   31.4678    2.6867 N.am      8 UNK        -0.4253 
     50 CA         30.8137   31.4258    4.1555 C.3       8 UNK         0.0242 
     51 CB         29.4601   31.9925    4.6117 C.3       8 UNK        -0.2000 
     52 C          31.9547   32.1475    4.8943 C.2       8 UNK         0.4948 
     53 O          32.3837   31.6752    5.9465 O.2       8 UNK        -0.5275 
     54 N          32.4539   33.2455    4.3102 N.am      9 UNK        -0.4246 
     55 CA         33.5963   34.0175    4.8035 C.3       9 UNK         0.0261 
     56 CB         33.7325   35.3024    3.9703 C.3       9 UNK        -0.1959 
     57 C          34.9287   33.2425    4.8163 C.2       9 UNK         0.5033 
     58 O          35.8047   33.5925    5.6088 O.2       9 UNK        -0.5390 
     59 N          35.0717   32.2196    3.9590 N.am      10 UNK        -0.4215 
     60 CA         36.2408   31.3382    3.9357 C.3       10 UNK         0.0240 
     61 CB         36.3839   30.6906    2.5479 C.3       10 UNK        -0.1982 
     62 C          36.1621   30.2643    5.0319 C.2       10 UNK         0.4970 
     63 O          37.1889   29.9463    5.6335 O.2       10 UNK        -0.4916 
     64 N          34.9576   29.7280    5.2694 N.am      11 UNK        -0.4279 
     65 CA         34.6925   28.7271    6.3138 C.3       11 UNK         0.1003 
     66 C          34.6330   29.3340    7.7415 C.2       11 UNK         0.5709 
     67 N          34.0909   30.5319    7.9208 N.am      11 UNK        -0.7358 
     68 O          35.0931   28.7125    8.6964 O.2       11 UNK        -0.4999 
     69 C69        33.4233   27.8912    6.0133 C.3       12 UNK        -0.0954 
     70 S70        33.5849   26.9411    4.4639 S.3       12 UNK        -0.2268 
     71 C71        32.0884   27.4359    3.5588 C.3       12 UNK         0.0203 
     72 H72        28.2035   17.2896    0.5045 H         1 UNK         0.0888 
     73 H73        29.0003   17.1089   -1.0596 H         1 UNK         0.0888 
     74 H74        29.9485   17.0399    0.4285 H         1 UNK         0.0888 
     75 H75        27.6400   19.4191    0.8950 H         1 UNK         0.3017 
     76 H76        29.5120   21.5937    0.6281 H         1 UNK         0.0873 
     77 H77        26.5186   21.8380    1.2312 H         1 UNK         0.0745 
     78 H78        27.6516   21.3014    2.4338 H         1 UNK         0.0745 
     79 H79        29.9477   22.8549    3.1001 H         1 UNK         0.0705 
     80 H80        28.5310   22.7917    4.1265 H         1 UNK         0.0705 
     81 H81        31.2015   24.9795    2.8153 H         1 UNK         0.1334 
     82 H82        30.2137   28.2781    5.3730 H         1 UNK         0.1417 
     83 H83        27.6652   24.8325    5.2351 H         1 UNK         0.1562 
     84 H84        28.2218   28.2730    6.6827 H         1 UNK         0.0748 
     85 H85        27.7088   26.6961    7.2351 H         1 UNK         0.0748 
     86 H86        27.3937   29.3973    4.5504 H         1 UNK         0.0940 
     87 H87        25.7483   29.3183    3.9809 H         1 UNK         0.0940 
     88 H88        28.0139   27.4615    3.1018 H         1 UNK         0.0703 
     89 H89        26.5448   26.0480    2.4033 H         1 UNK         0.3081 
     90 H90        24.7037   25.0631    1.8970 H         1 UNK         0.0719 
     91 H91        22.2479   26.7256    1.1421 H         1 UNK         0.0809 
     92 H92        22.2825   25.0023    1.5187 H         1 UNK         0.0809 
     93 H93        22.6336   26.1831    2.7689 H         1 UNK         0.0809 
     94 H94        23.5493   25.3545   -0.5485 H         1 UNK         0.2990 
     95 H95        24.5124   24.3305   -2.2270 H         1 UNK         0.0690 
     96 H96        25.9527   26.8445   -3.2196 H         1 UNK         0.0788 
     97 H97        24.2249   26.6102   -3.0525 H         1 UNK         0.0788 
     98 H98        25.1134   25.6939   -4.2597 H         1 UNK         0.0788 
     99 H99        26.3590   23.1078   -2.3140 H         1 UNK         0.2993 
    100 H100       28.3416   22.4438   -3.5868 H         1 UNK         0.0949 
    101 H101       30.6259   24.3625   -2.8795 H         1 UNK         0.0767 
    102 H102       30.8047   22.7395   -3.5471 H         1 UNK         0.0767 
    103 H103       30.0501   24.0045   -4.5023 H         1 UNK         0.0767 
    104 H104       29.7588   22.9526   -1.0834 H         1 UNK         0.3013 
    105 H105       27.7060   27.5070    0.4138 H         1 UNK         0.3121 
    106 H106       28.1272   30.1761   -0.6108 H         1 UNK         0.0774 
    107 H107       29.1632   28.9571   -2.5273 H         1 UNK         0.0815 
    108 H108       29.1311   27.4566   -1.6109 H         1 UNK         0.0815 
    109 H109       27.6235   28.2290   -2.0923 H         1 UNK         0.0815 
    110 H110       29.9086   31.4239   -0.4831 H         1 UNK         0.2987 
    111 H111       31.8192   32.3198    0.1908 H         1 UNK         0.0949 
    112 H112       33.0994   29.5551   -0.1294 H         1 UNK         0.0806 
    113 H113       32.8657   30.7200   -1.4328 H         1 UNK         0.0806 
    114 H114       33.9342   31.0981   -0.0919 H         1 UNK         0.0806 
    115 H115       30.0439   31.7024    2.1998 H         1 UNK         0.3010 
    116 H116       30.8562   30.3772    4.4487 H         1 UNK         0.0829 
    117 H117       29.3623   31.9457    5.6974 H         1 UNK         0.0813 
    118 H118       29.3392   33.0359    4.3179 H         1 UNK         0.0813 
    119 H119       28.6280   31.4302    4.1921 H         1 UNK         0.0813 
    120 H120       32.0344   33.5557    3.4459 H         1 UNK         0.3038 
    121 H121       33.3792   34.3007    5.8357 H         1 UNK         0.0769 
    122 H122       34.5577   35.9170    4.3331 H         1 UNK         0.0811 
    123 H123       32.8299   35.9113    4.0270 H         1 UNK         0.0811 
    124 H124       33.9272   35.0839    2.9195 H         1 UNK         0.0811 
    125 H125       34.2943   31.9536    3.3599 H         1 UNK         0.3204 
    126 H126       37.1364   31.9371    4.1159 H         1 UNK         0.0748 
    127 H127       37.2991   30.1002    2.4893 H         1 UNK         0.0771 
    128 H128       35.5536   30.0210    2.3212 H         1 UNK         0.0771 
    129 H129       36.4322   31.4432    1.7608 H         1 UNK         0.0771 
    130 H130       34.1619   30.0478    4.7372 H         1 UNK         0.2980 
    131 H131       35.5334   28.0302    6.3177 H         1 UNK         0.0545 
    132 H132       33.6212   31.0069    7.1534 H         1 UNK         0.3459 
    133 H133       34.0606   30.9257    8.8469 H         1 UNK         0.3459 
    134 H134       33.2332   27.1753    6.8151 H         1 UNK         0.0616 
    135 H135       32.5482   28.5410    5.9687 H         1 UNK         0.0616 
    136 H136       32.2356   27.2193    2.4997 H         1 UNK         0.0634 
    137 H137       31.9539   28.5146    3.6243 H         1 UNK         0.0634 
@<TRIPOS>BOND
     1    1    2 1    
     2    1   72 1    
     3    1   73 1    
     4    1   74 1    
     5    2    3 2    
     6    2    4 am   BACKBONE|DICT|INTERRES
     7    4    5 1    
     8    4   75 1    
     9    5    6 1    
    10    5   35 1    
    11    5   76 1    
    12    6    7 1    
    13    6   77 1    
    14    6   78 1    
    15    7    8 1    
    16    8    9 1    
    17    8   79 1    
    18    8   80 1    
    19    9   10 ar   
    20    9   14 ar   
    21   10   11 ar   
    22   10   81 1    
    23   11   12 ar   
    24   11   71 1    
    25   12   13 ar   
    26   12   82 1    
    27   13   14 ar   
    28   13   15 1    
    29   14   83 1    
    30   15   16 1    
    31   15   84 1    
    32   15   85 1    
    33   16   17 1    
    34   17   18 1    
    35   17   86 1    
    36   17   87 1    
    37   18   19 1    
    38   18   37 1    
    39   18   88 1    
    40   19   20 am   BACKBONE|DICT|INTERRES
    41   19   89 1    
    42   20   21 2    
    43   20   22 1    
    44   22   23 1    
    45   22   24 1    
    46   22   90 1    
    47   23   91 1    
    48   23   92 1    
    49   23   93 1    
    50   24   25 am   BACKBONE|DICT|INTERRES
    51   24   94 1    
    52   25   26 2    
    53   25   27 1    
    54   27   28 1    
    55   27   29 1    
    56   27   95 1    
    57   28   96 1    
    58   28   97 1    
    59   28   98 1    
    60   29   30 am   BACKBONE|DICT|INTERRES
    61   29   99 1    
    62   30   31 2    
    63   30   32 1    
    64   32   33 1    
    65   32   34 1    
    66   32  100 1    
    67   33  101 1    
    68   33  102 1    
    69   33  103 1    
    70   34   35 am   BACKBONE|DICT|INTERRES
    71   34  104 1    
    72   35   36 2    
    73   37   38 2    
    74   37   39 am   BACKBONE|DICT|INTERRES
    75   39   40 1    
    76   39  105 1    
    77   40   41 1    
    78   40   42 1    
    79   40  106 1    
    80   41  107 1    
    81   41  108 1    
    82   41  109 1    
    83   42   43 2    
    84   42   44 am   BACKBONE|DICT|INTERRES
    85   44   45 1    
    86   44  110 1    
    87   45   46 1    
    88   45   47 1    
    89   45  111 1    
    90   46  112 1    
    91   46  113 1    
    92   46  114 1    
    93   47   48 2    
    94   47   49 am   BACKBONE|DICT|INTERRES
    95   49   50 1    
    96   49  115 1    
    97   50   51 1    
    98   50   52 1    
    99   50  116 1    
   100   51  117 1    
   101   51  118 1    
   102   51  119 1    
   103   52   53 2    
   104   52   54 am   BACKBONE|DICT|INTERRES
   105   54   55 1    
   106   54  120 1    
   107   55   56 1    
   108   55   57 1    
   109   55  121 1    
   110   56  122 1    
   111   56  123 1    
   112   56  124 1    
   113   57   58 2    
   114   57   59 am   BACKBONE|DICT|INTERRES
   115   59   60 1    
   116   59  125 1    
   117   60   61 1    
   118   60   62 1    
   119   60  126 1    
   120   61  127 1    
   121   61  128 1    
   122   61  129 1    
   123   62   63 2    
   124   62   64 am   BACKBONE|DICT|INTERRES
   125   64   65 1    
   126   64  130 1    
   127   65   66 1    
   128   65   69 1    
   129   65  131 1    
   130   66   67 am   BACKBONE|DICT|INTERRES
   131   66   68 2    
   132   67  132 1    
   133   67  133 1    
   134   69   70 1    
   135   69  134 1    
   136   69  135 1    
   137   70   71 1    
   138   71  136 1    
   139   71  137 1    
@<TRIPOS>SUBSTRUCTURE
     1 UNK         1 GROUP             0       ****    0 ROOT    
