@<TRIPOS>MOLECULE
3R136
137   139    1
SMALL
USER_CHARGES


@<TRIPOS>ATOM
      1 CA         29.6845   22.9607   -5.0406 C.3       0 UNK        -0.1979 
      2 C          29.5879   23.7711   -3.7563 C.2       0 UNK         0.4864 
      3 O          30.0083   24.9276   -3.7316 O.2       0 UNK        -0.5359 
      4 N          29.0366   23.1726   -2.6961 N.am      1 UNK        -0.4318 
      5 CA         28.8009   23.7775   -1.3866 C.3       1 UNK         0.0824 
      6 C6         30.1058   23.9373   -0.5535 C.3       12 UNK        -0.0944 
      7 S7         30.0155   25.3107    0.6459 S.3       12 UNK        -0.2672 
      8 C8         30.2361   24.4333    2.2266 C.3       12 UNK         0.0333 
      9 C9         30.2247   25.4192    3.3827 C.ar      12 UNK        -0.0807 
     10 C10        31.4269   25.9300    3.8762 C.ar      12 UNK        -0.0894 
     11 C11        31.4297   26.8811    4.8990 C.ar      12 UNK        -0.0804 
     12 C12        30.2123   27.3259    5.4246 C.ar      12 UNK        -0.0824 
     13 C13        28.9993   26.8096    4.9546 C.ar      12 UNK        -0.0762 
     14 C14        29.0157   25.8400    3.9447 C.ar      12 UNK        -0.0782 
     15 C15        27.6862   27.3009    5.5627 C.3       12 UNK         0.0230 
     16 S16        26.3593   27.6191    4.3460 S.3       12 UNK        -0.2608 
     17 C17        27.1469   28.8105    3.2092 C.3       12 UNK        -0.0989 
     18 CA         27.3071   28.2084    1.7907 C.3       5 UNK         0.0716 
     19 N          26.0129   27.9371    1.1552 N.am      5 UNK        -0.4135 
     20 C          25.8123   26.9919    0.2321 C.2       4 UNK         0.5031 
     21 O          26.7065   26.2481   -0.1848 O.2       4 UNK        -0.5229 
     22 CA         24.3973   26.8529   -0.3392 C.3       4 UNK         0.0329 
     23 CB         24.2076   27.7414   -1.5796 C.3       4 UNK        -0.2001 
     24 N          24.2506   25.4523   -0.7018 N.am      4 UNK        -0.4303 
     25 C          23.1418   24.7097   -0.6355 C.2       3 UNK         0.5044 
     26 O          22.0117   25.1641   -0.4549 O.2       3 UNK        -0.5152 
     27 CA         23.3528   23.1856   -0.7391 C.3       3 UNK         0.0319 
     28 CB         23.2754   22.7238   -2.2028 C.3       3 UNK        -0.2001 
     29 N          24.6392   22.7709   -0.1644 N.am      3 UNK        -0.4354 
     30 C          24.9635   22.8703    1.1327 C.2       2 UNK         0.4964 
     31 O          24.1521   23.1447    2.0171 O.2       2 UNK        -0.5047 
     32 CA         26.4449   22.7032    1.5116 C.3       2 UNK         0.0288 
     33 CB         26.7960   21.2297    1.7961 C.3       2 UNK        -0.2113 
     34 N          27.3861   23.3238    0.5646 N.am      2 UNK        -0.4145 
     35 C          27.7228   22.9373   -0.6725 C.2       1 UNK         0.5006 
     36 O          27.2096   21.9739   -1.2513 O.2       1 UNK        -0.5103 
     37 C          28.1825   29.0727    0.8633 C.2       5 UNK         0.5055 
     38 O          28.4502   30.2364    1.1625 O.2       5 UNK        -0.5220 
     39 N          28.6002   28.4859   -0.2648 N.am      6 UNK        -0.4450 
     40 CA         29.4448   29.1157   -1.2819 C.3       6 UNK         0.0367 
     41 CB         29.5127   28.1968   -2.5108 C.3       6 UNK        -0.1929 
     42 C          30.8620   29.4448   -0.7803 C.2       6 UNK         0.5070 
     43 O          31.4529   30.4238   -1.2354 O.2       6 UNK        -0.5237 
     44 N          31.3727   28.6324    0.1533 N.am      7 UNK        -0.4739 
     45 CA         32.7050   28.7588    0.7465 C.3       7 UNK         0.0276 
     46 CB         33.3491   27.3617    0.8014 C.3       7 UNK        -0.1927 
     47 C          32.6818   29.4321    2.1320 C.2       7 UNK         0.5013 
     48 O          33.6561   29.2891    2.8720 O.2       7 UNK        -0.5193 
     49 N          31.5997   30.1603    2.4637 N.am      8 UNK        -0.4253 
     50 CA         31.3329   30.8047    3.7628 C.3       8 UNK         0.0242 
     51 CB         30.0978   31.7127    3.6544 C.3       8 UNK        -0.2000 
     52 C          32.4979   31.6053    4.3698 C.2       8 UNK         0.4948 
     53 O          32.6690   31.5842    5.5890 O.2       8 UNK        -0.5275 
     54 N          33.3046   32.2517    3.5169 N.am      9 UNK        -0.4246 
     55 CA         34.5117   32.9969    3.8877 C.3       9 UNK         0.0261 
     56 CB         35.1069   33.6470    2.6282 C.3       9 UNK        -0.1959 
     57 C          35.5839   32.1634    4.6188 C.2       9 UNK         0.5033 
     58 O          36.3764   32.7419    5.3636 O.2       9 UNK        -0.5390 
     59 N          35.5908   30.8367    4.4187 N.am      10 UNK        -0.4215 
     60 CA         36.4700   29.9062    5.1304 C.3       10 UNK         0.0240 
     61 CB         36.6276   28.6235    4.2968 C.3       10 UNK        -0.1982 
     62 C          35.9762   29.5683    6.5506 C.2       10 UNK         0.4970 
     63 O          36.7770   29.0794    7.3489 O.2       10 UNK        -0.4916 
     64 N          34.6905   29.8103    6.8387 N.am      11 UNK        -0.4279 
     65 CA         34.0397   29.5111    8.1242 C.3       11 UNK         0.1003 
     66 C          33.7529   30.7952    8.9453 C.2       11 UNK         0.5709 
     67 N          33.4134   31.9142    8.3170 N.am      11 UNK        -0.7358 
     68 O          33.8518   30.7785   10.1700 O.2       11 UNK        -0.4999 
     69 C69        32.7398   28.6855    7.9305 C.3       12 UNK        -0.0954 
     70 S70        33.0559   27.0625    7.1558 S.3       12 UNK        -0.2268 
     71 C71        32.7521   27.4428    5.4020 C.3       12 UNK         0.0203 
     72 H72        30.7256   22.8705   -5.3494 H         1 UNK         0.0888 
     73 H73        29.2782   21.9565   -4.9206 H         1 UNK         0.0888 
     74 H74        29.1333   23.4565   -5.8392 H         1 UNK         0.0888 
     75 H75        28.6469   22.2401   -2.7754 H         1 UNK         0.3017 
     76 H76        28.3678   24.7628   -1.5701 H         1 UNK         0.0873 
     77 H77        30.9453   24.1710   -1.2098 H         1 UNK         0.0745 
     78 H78        30.3794   23.0041   -0.0572 H         1 UNK         0.0745 
     79 H79        29.4516   23.6886    2.3629 H         1 UNK         0.0705 
     80 H80        31.1799   23.8858    2.2058 H         1 UNK         0.0705 
     81 H81        32.3636   25.5942    3.4534 H         1 UNK         0.1334 
     82 H82        30.2129   28.0688    6.2100 H         1 UNK         0.1417 
     83 H83        28.0842   25.4337    3.5755 H         1 UNK         0.1562 
     84 H84        27.8490   28.2169    6.1330 H         1 UNK         0.0748 
     85 H85        27.3335   26.5547    6.2757 H         1 UNK         0.0748 
     86 H86        28.1187   29.0934    3.6161 H         1 UNK         0.0940 
     87 H87        26.5515   29.7250    3.1817 H         1 UNK         0.0940 
     88 H88        27.8403   27.2631    1.9031 H         1 UNK         0.0703 
     89 H89        25.2433   28.5264    1.4374 H         1 UNK         0.3081 
     90 H90        23.6689   27.1160    0.4309 H         1 UNK         0.0719 
     91 H91        23.2135   27.6140   -2.0084 H         1 UNK         0.0809 
     92 H92        24.9387   27.5105   -2.3558 H         1 UNK         0.0809 
     93 H93        24.3199   28.7964   -1.3268 H         1 UNK         0.0809 
     94 H94        25.1398   24.9836   -0.8218 H         1 UNK         0.2990 
     95 H95        22.5537   22.6969   -0.1778 H         1 UNK         0.0690 
     96 H96        23.3625   21.6399   -2.2813 H         1 UNK         0.0788 
     97 H97        24.0647   23.1688   -2.8102 H         1 UNK         0.0788 
     98 H98        22.3208   23.0050   -2.6499 H         1 UNK         0.0788 
     99 H99        25.3721   22.4842   -0.8066 H         1 UNK         0.2993 
    100 H100       26.5804   23.2502    2.4464 H         1 UNK         0.0949 
    101 H101       27.8327   21.1242    2.1161 H         1 UNK         0.0767 
    102 H102       26.1683   20.8299    2.5936 H         1 UNK         0.0767 
    103 H103       26.6474   20.5950    0.9222 H         1 UNK         0.0767 
    104 H104       27.8105   24.1852    0.8857 H         1 UNK         0.3013 
    105 H105       28.2897   27.5353   -0.4409 H         1 UNK         0.3121 
    106 H106       28.9716   30.0545   -1.5773 H         1 UNK         0.0774 
    107 H107       30.1116   28.6463   -3.3039 H         1 UNK         0.0815 
    108 H108       29.9650   27.2344   -2.2667 H         1 UNK         0.0815 
    109 H109       28.5214   28.0053   -2.9221 H         1 UNK         0.0815 
    110 H110       30.8125   27.8503    0.4663 H         1 UNK         0.2987 
    111 H111       33.3358   29.3859    0.1129 H         1 UNK         0.0949 
    112 H112       32.7762   26.6800    1.4278 H         1 UNK         0.0806 
    113 H113       33.4169   26.9197   -0.1928 H         1 UNK         0.0806 
    114 H114       34.3625   27.4047    1.2029 H         1 UNK         0.0806 
    115 H115       30.8571   30.2229    1.7798 H         1 UNK         0.3010 
    116 H116       31.0975   30.0066    4.4678 H         1 UNK         0.0829 
    117 H117       29.1949   31.1397    3.4577 H         1 UNK         0.0813 
    118 H118       29.9248   32.2570    4.5843 H         1 UNK         0.0813 
    119 H119       30.2067   32.4512    2.8593 H         1 UNK         0.0813 
    120 H120       33.0898   32.1975    2.5319 H         1 UNK         0.3038 
    121 H121       34.2039   33.7913    4.5707 H         1 UNK         0.0769 
    122 H122       35.9926   34.2350    2.8734 H         1 UNK         0.0811 
    123 H123       34.3946   34.3225    2.1540 H         1 UNK         0.0811 
    124 H124       35.4057   32.9000    1.8916 H         1 UNK         0.0811 
    125 H125       34.8992   30.4204    3.7975 H         1 UNK         0.3204 
    126 H126       37.4567   30.3639    5.2289 H         1 UNK         0.0748 
    127 H127       37.3268   27.9331    4.7705 H         1 UNK         0.0771 
    128 H128       35.6801   28.0974    4.1810 H         1 UNK         0.0771 
    129 H129       37.0124   28.8419    3.3006 H         1 UNK         0.0771 
    130 H130       34.1107   30.2864    6.1584 H         1 UNK         0.2980 
    131 H131       34.7104   28.9057    8.7370 H         1 UNK         0.0545 
    132 H132       33.2409   31.9088    7.3152 H         1 UNK         0.3459 
    133 H133       33.2364   32.7477    8.8538 H         1 UNK         0.3459 
    134 H134       32.0089   29.2436    7.3428 H         1 UNK         0.0616 
    135 H135       32.2672   28.4932    8.8955 H         1 UNK         0.0616 
    136 H136       32.7729   28.5189    5.2404 H         1 UNK         0.0634 
    137 H137       33.5825   27.0392    4.8216 H         1 UNK         0.0634 
@<TRIPOS>BOND
     1    1    2 1    
     2    1   72 1    
     3    1   73 1    
     4    1   74 1    
     5    2    3 2    
     6    2    4 am   BACKBONE|DICT|INTERRES
     7    4    5 1    
     8    4   75 1    
     9    5    6 1    
    10    5   35 1    
    11    5   76 1    
    12    6    7 1    
    13    6   77 1    
    14    6   78 1    
    15    7    8 1    
    16    8    9 1    
    17    8   79 1    
    18    8   80 1    
    19    9   10 ar   
    20    9   14 ar   
    21   10   11 ar   
    22   10   81 1    
    23   11   12 ar   
    24   11   71 1    
    25   12   13 ar   
    26   12   82 1    
    27   13   14 ar   
    28   13   15 1    
    29   14   83 1    
    30   15   16 1    
    31   15   84 1    
    32   15   85 1    
    33   16   17 1    
    34   17   18 1    
    35   17   86 1    
    36   17   87 1    
    37   18   19 1    
    38   18   37 1    
    39   18   88 1    
    40   19   20 am   BACKBONE|DICT|INTERRES
    41   19   89 1    
    42   20   21 2    
    43   20   22 1    
    44   22   23 1    
    45   22   24 1    
    46   22   90 1    
    47   23   91 1    
    48   23   92 1    
    49   23   93 1    
    50   24   25 am   BACKBONE|DICT|INTERRES
    51   24   94 1    
    52   25   26 2    
    53   25   27 1    
    54   27   28 1    
    55   27   29 1    
    56   27   95 1    
    57   28   96 1    
    58   28   97 1    
    59   28   98 1    
    60   29   30 am   BACKBONE|DICT|INTERRES
    61   29   99 1    
    62   30   31 2    
    63   30   32 1    
    64   32   33 1    
    65   32   34 1    
    66   32  100 1    
    67   33  101 1    
    68   33  102 1    
    69   33  103 1    
    70   34   35 am   BACKBONE|DICT|INTERRES
    71   34  104 1    
    72   35   36 2    
    73   37   38 2    
    74   37   39 am   BACKBONE|DICT|INTERRES
    75   39   40 1    
    76   39  105 1    
    77   40   41 1    
    78   40   42 1    
    79   40  106 1    
    80   41  107 1    
    81   41  108 1    
    82   41  109 1    
    83   42   43 2    
    84   42   44 am   BACKBONE|DICT|INTERRES
    85   44   45 1    
    86   44  110 1    
    87   45   46 1    
    88   45   47 1    
    89   45  111 1    
    90   46  112 1    
    91   46  113 1    
    92   46  114 1    
    93   47   48 2    
    94   47   49 am   BACKBONE|DICT|INTERRES
    95   49   50 1    
    96   49  115 1    
    97   50   51 1    
    98   50   52 1    
    99   50  116 1    
   100   51  117 1    
   101   51  118 1    
   102   51  119 1    
   103   52   53 2    
   104   52   54 am   BACKBONE|DICT|INTERRES
   105   54   55 1    
   106   54  120 1    
   107   55   56 1    
   108   55   57 1    
   109   55  121 1    
   110   56  122 1    
   111   56  123 1    
   112   56  124 1    
   113   57   58 2    
   114   57   59 am   BACKBONE|DICT|INTERRES
   115   59   60 1    
   116   59  125 1    
   117   60   61 1    
   118   60   62 1    
   119   60  126 1    
   120   61  127 1    
   121   61  128 1    
   122   61  129 1    
   123   62   63 2    
   124   62   64 am   BACKBONE|DICT|INTERRES
   125   64   65 1    
   126   64  130 1    
   127   65   66 1    
   128   65   69 1    
   129   65  131 1    
   130   66   67 am   BACKBONE|DICT|INTERRES
   131   66   68 2    
   132   67  132 1    
   133   67  133 1    
   134   69   70 1    
   135   69  134 1    
   136   69  135 1    
   137   70   71 1    
   138   71  136 1    
   139   71  137 1    
@<TRIPOS>SUBSTRUCTURE
     1 UNK         1 GROUP             0       ****    0 ROOT    
