@<TRIPOS>MOLECULE
3R136
137   139    1
SMALL
USER_CHARGES


@<TRIPOS>ATOM
      1 CA         33.4589   22.4239   -0.1211 C.3       0 UNK        -0.1979 
      2 C          31.9750   22.0877   -0.1049 C.2       0 UNK         0.4864 
      3 O          31.5073   21.3557   -0.9779 O.2       0 UNK        -0.5359 
      4 N          31.2390   22.6277    0.8778 N.am      1 UNK        -0.4318 
      5 CA         29.8027   22.4124    1.1238 C.3       1 UNK         0.0824 
      6 C6         29.4344   20.9484    1.5250 C.3       12 UNK        -0.0944 
      7 S7         30.5779   20.1343    2.7012 S.3       12 UNK        -0.2672 
      8 C8         29.9027   20.6026    4.3271 C.3       12 UNK         0.0333 
      9 C9         30.1157   22.0825    4.5975 C.ar      12 UNK        -0.0807 
     10 C10        31.4069   22.5784    4.8033 C.ar      12 UNK        -0.0894 
     11 C11        31.6223   23.9517    4.9443 C.ar      12 UNK        -0.0804 
     12 C12        30.5348   24.8272    4.9158 C.ar      12 UNK        -0.0824 
     13 C13        29.2437   24.3416    4.6906 C.ar      12 UNK        -0.0762 
     14 C14        29.0341   22.9660    4.5644 C.ar      12 UNK        -0.0782 
     15 C15        28.0845   25.3011    4.4870 C.3       12 UNK         0.0230 
     16 S16        27.7798   25.5551    2.7066 S.3       12 UNK        -0.2608 
     17 C17        29.1748   26.6465    2.2371 C.3       12 UNK        -0.0989 
     18 CA         28.7706   28.1239    2.0208 C.3       5 UNK         0.0716 
     19 N          27.7651   28.2339    0.9696 N.am      5 UNK        -0.4135 
     20 C          27.2416   29.3593    0.4710 C.2       4 UNK         0.5031 
     21 O          27.6094   30.4864    0.8073 O.2       4 UNK        -0.5229 
     22 CA         26.1400   29.2021   -0.5964 C.3       4 UNK         0.0329 
     23 CB         26.4700   30.0322   -1.8490 C.3       4 UNK        -0.2001 
     24 N          25.9364   27.8043   -0.9958 N.am      4 UNK        -0.4303 
     25 C          25.1911   26.8972   -0.3541 C.2       3 UNK         0.5044 
     26 O          24.4916   27.1622    0.6230 O.2       3 UNK        -0.5152 
     27 CA         25.2589   25.4418   -0.8596 C.3       3 UNK         0.0319 
     28 CB         24.3787   25.2540   -2.1106 C.3       3 UNK        -0.2001 
     29 N          26.6142   24.9008   -1.0765 N.am      3 UNK        -0.4354 
     30 C          27.5538   25.2816   -1.9549 C.2       2 UNK         0.4964 
     31 O          27.4259   26.2542   -2.7013 O.2       2 UNK        -0.5047 
     32 CA         28.8460   24.4375   -2.0348 C.3       2 UNK         0.0288 
     33 CB         29.9776   25.1714   -2.7809 C.3       2 UNK        -0.2113 
     34 N          29.3794   23.9625   -0.7521 N.am      2 UNK        -0.4145 
     35 C          28.9030   22.9425   -0.0224 C.2       1 UNK         0.5006 
     36 O          27.8078   22.4198   -0.2400 O.2       1 UNK        -0.5103 
     37 C          28.3225   28.8061    3.3316 C.2       5 UNK         0.5055 
     38 O          27.1247   28.8848    3.6163 O.2       5 UNK        -0.5220 
     39 N          29.3013   29.3177    4.0869 N.am      6 UNK        -0.4450 
     40 CA         29.1889   30.1377    5.3021 C.3       6 UNK         0.0367 
     41 CB         28.3972   29.4296    6.4186 C.3       6 UNK        -0.1929 
     42 C          28.6619   31.5600    5.0362 C.2       6 UNK         0.5070 
     43 O          29.1911   32.5066    5.6179 O.2       6 UNK        -0.5237 
     44 N          27.6681   31.6992    4.1486 N.am      7 UNK        -0.4739 
     45 CA         27.1559   32.9779    3.6552 C.3       7 UNK         0.0276 
     46 CB         25.8116   32.7637    2.9399 C.3       7 UNK        -0.1927 
     47 C          28.1742   33.6809    2.7428 C.2       7 UNK         0.5013 
     48 O          28.4966   34.8444    2.9865 O.2       7 UNK        -0.5193 
     49 N          28.6781   32.9607    1.7291 N.am      8 UNK        -0.4253 
     50 CA         29.7511   33.4252    0.8469 C.3       8 UNK         0.0242 
     51 CB         29.7611   32.5987   -0.4508 C.3       8 UNK        -0.2000 
     52 C          31.1158   33.3713    1.5515 C.2       8 UNK         0.4948 
     53 O          31.8106   34.3864    1.6108 O.2       8 UNK        -0.5275 
     54 N          31.4594   32.1941    2.0874 N.am      9 UNK        -0.4246 
     55 CA         32.6699   31.9166    2.8553 C.3       9 UNK         0.0261 
     56 CB         33.9046   31.8722    1.9343 C.3       9 UNK        -0.1959 
     57 C          32.4841   30.5693    3.5554 C.2       9 UNK         0.5033 
     58 O          31.8346   29.6793    2.9974 O.2       9 UNK        -0.5390 
     59 N          33.0685   30.4138    4.7477 N.am      10 UNK        -0.4215 
     60 CA         33.0346   29.1780    5.5380 C.3       10 UNK         0.0240 
     61 CB         33.0398   29.5395    7.0356 C.3       10 UNK        -0.1982 
     62 C          34.1906   28.2392    5.1444 C.2       10 UNK         0.4970 
     63 O          34.9933   27.8596    5.9981 O.2       10 UNK        -0.4916 
     64 N          34.2649   27.9106    3.8478 N.am      11 UNK        -0.4279 
     65 CA         35.3012   27.0725    3.2133 C.3       11 UNK         0.1003 
     66 C          36.7381   27.6827    3.2230 C.2       11 UNK         0.5709 
     67 N          36.9085   28.9739    3.4824 N.am      11 UNK        -0.7358 
     68 O          37.7152   26.9876    2.9537 O.2       11 UNK        -0.4999 
     69 C69        35.2718   25.5924    3.6971 C.3       12 UNK        -0.0954 
     70 S70        33.6748   24.7862    3.3515 S.3       12 UNK        -0.2268 
     71 C71        33.0352   24.4999    5.0298 C.3       12 UNK         0.0203 
     72 H72        33.7214   22.9214   -1.0543 H         1 UNK         0.0888 
     73 H73        33.7389   23.0795    0.7034 H         1 UNK         0.0888 
     74 H74        34.0498   21.5117   -0.0424 H         1 UNK         0.0888 
     75 H75        31.7025   23.2023    1.5688 H         1 UNK         0.3017 
     76 H76        29.5668   23.0553    1.9688 H         1 UNK         0.0873 
     77 H77        28.4254   20.9141    1.9398 H         1 UNK         0.0745 
     78 H78        29.4094   20.3178    0.6342 H         1 UNK         0.0745 
     79 H79        30.4045   20.0202    5.1010 H         1 UNK         0.0705 
     80 H80        28.8456   20.3366    4.3764 H         1 UNK         0.0705 
     81 H81        32.2491   21.8997    4.7946 H         1 UNK         0.1334 
     82 H82        30.7051   25.8910    5.0064 H         1 UNK         0.1417 
     83 H83        28.0376   22.5927    4.3697 H         1 UNK         0.1562 
     84 H84        28.2744   26.2575    4.9766 H         1 UNK         0.0748 
     85 H85        27.1832   24.8944    4.9478 H         1 UNK         0.0748 
     86 H86        29.6016   26.2523    1.3138 H         1 UNK         0.0940 
     87 H87        29.9823   26.5838    2.9640 H         1 UNK         0.0940 
     88 H88        29.6487   28.6616    1.6567 H         1 UNK         0.0703 
     89 H89        27.3559   27.3619    0.6727 H         1 UNK         0.3081 
     90 H90        25.2147   29.5870   -0.1630 H         1 UNK         0.0719 
     91 H91        27.4025   29.7071   -2.3126 H         1 UNK         0.0809 
     92 H92        25.6791   29.9550   -2.5952 H         1 UNK         0.0809 
     93 H93        26.5785   31.0896   -1.6030 H         1 UNK         0.0809 
     94 H94        26.4981   27.4615   -1.7749 H         1 UNK         0.2990 
     95 H95        24.8299   24.8237   -0.0688 H         1 UNK         0.0690 
     96 H96        24.3376   24.2071   -2.4117 H         1 UNK         0.0788 
     97 H97        24.7446   25.8323   -2.9598 H         1 UNK         0.0788 
     98 H98        23.3542   25.5753   -1.9177 H         1 UNK         0.0788 
     99 H99        26.8355   24.0703   -0.5335 H         1 UNK         0.2993 
    100 H100       28.5870   23.5568   -2.6267 H         1 UNK         0.0949 
    101 H101       30.2763   26.0829   -2.2615 H         1 UNK         0.0767 
    102 H102       30.8596   24.5390   -2.8865 H         1 UNK         0.0767 
    103 H103       29.6692   25.4550   -3.7883 H         1 UNK         0.0767 
    104 H104       30.2735   24.3438   -0.4810 H         1 UNK         0.3013 
    105 H105       30.2481   29.2616    3.7105 H         1 UNK         0.3121 
    106 H106       30.2096   30.2568    5.6662 H         1 UNK         0.0774 
    107 H107       28.4480   29.9996    7.3471 H         1 UNK         0.0815 
    108 H108       27.3418   29.3182    6.1694 H         1 UNK         0.0815 
    109 H109       28.8014   28.4385    6.6239 H         1 UNK         0.0815 
    110 H110       27.2813   30.8519    3.7430 H         1 UNK         0.2987 
    111 H111       26.9794   33.6269    4.5161 H         1 UNK         0.0949 
    112 H112       25.4138   33.7090    2.5683 H         1 UNK         0.0806 
    113 H113       25.9030   32.0912    2.0869 H         1 UNK         0.0806 
    114 H114       25.0674   32.3435    3.6165 H         1 UNK         0.0806 
    115 H115       28.3098   32.0272    1.5523 H         1 UNK         0.3010 
    116 H116       29.5526   34.4652    0.5785 H         1 UNK         0.0829 
    117 H117       28.8108   32.6822   -0.9784 H         1 UNK         0.0813 
    118 H118       30.5409   32.9476   -1.1290 H         1 UNK         0.0813 
    119 H119       29.9422   31.5399   -0.2621 H         1 UNK         0.0813 
    120 H120       30.8362   31.4027    1.9953 H         1 UNK         0.3038 
    121 H121       32.7951   32.6976    3.6083 H         1 UNK         0.0769 
    122 H122       33.7959   31.1184    1.1532 H         1 UNK         0.0811 
    123 H123       34.8076   31.6327    2.4971 H         1 UNK         0.0811 
    124 H124       34.0777   32.8322    1.4482 H         1 UNK         0.0811 
    125 H125       33.6127   31.1757    5.1290 H         1 UNK         0.3204 
    126 H126       32.1075   28.6365    5.3378 H         1 UNK         0.0748 
    127 H127       32.9734   28.6434    7.6543 H         1 UNK         0.0771 
    128 H128       33.9503   30.0674    7.3221 H         1 UNK         0.0771 
    129 H129       32.1907   30.1720    7.2950 H         1 UNK         0.0771 
    130 H130       33.5572   28.2810    3.2259 H         1 UNK         0.2980 
    131 H131       35.0371   27.0608    2.1554 H         1 UNK         0.0545 
    132 H132       37.8401   29.3583    3.4729 H         1 UNK         0.3459 
    133 H133       36.1214   29.5600    3.7024 H         1 UNK         0.3459 
    134 H134       35.5081   25.5227    4.7597 H         1 UNK         0.0616 
    135 H135       36.0328   25.0043    3.1816 H         1 UNK         0.0616 
    136 H136       33.0479   25.4323    5.5958 H         1 UNK         0.0634 
    137 H137       33.6860   23.8006    5.5567 H         1 UNK         0.0634 
@<TRIPOS>BOND
     1    1    2 1    
     2    1   72 1    
     3    1   73 1    
     4    1   74 1    
     5    2    3 2    
     6    2    4 am   BACKBONE|DICT|INTERRES
     7    4    5 1    
     8    4   75 1    
     9    5    6 1    
    10    5   35 1    
    11    5   76 1    
    12    6    7 1    
    13    6   77 1    
    14    6   78 1    
    15    7    8 1    
    16    8    9 1    
    17    8   79 1    
    18    8   80 1    
    19    9   10 ar   
    20    9   14 ar   
    21   10   11 ar   
    22   10   81 1    
    23   11   12 ar   
    24   11   71 1    
    25   12   13 ar   
    26   12   82 1    
    27   13   14 ar   
    28   13   15 1    
    29   14   83 1    
    30   15   16 1    
    31   15   84 1    
    32   15   85 1    
    33   16   17 1    
    34   17   18 1    
    35   17   86 1    
    36   17   87 1    
    37   18   19 1    
    38   18   37 1    
    39   18   88 1    
    40   19   20 am   BACKBONE|DICT|INTERRES
    41   19   89 1    
    42   20   21 2    
    43   20   22 1    
    44   22   23 1    
    45   22   24 1    
    46   22   90 1    
    47   23   91 1    
    48   23   92 1    
    49   23   93 1    
    50   24   25 am   BACKBONE|DICT|INTERRES
    51   24   94 1    
    52   25   26 2    
    53   25   27 1    
    54   27   28 1    
    55   27   29 1    
    56   27   95 1    
    57   28   96 1    
    58   28   97 1    
    59   28   98 1    
    60   29   30 am   BACKBONE|DICT|INTERRES
    61   29   99 1    
    62   30   31 2    
    63   30   32 1    
    64   32   33 1    
    65   32   34 1    
    66   32  100 1    
    67   33  101 1    
    68   33  102 1    
    69   33  103 1    
    70   34   35 am   BACKBONE|DICT|INTERRES
    71   34  104 1    
    72   35   36 2    
    73   37   38 2    
    74   37   39 am   BACKBONE|DICT|INTERRES
    75   39   40 1    
    76   39  105 1    
    77   40   41 1    
    78   40   42 1    
    79   40  106 1    
    80   41  107 1    
    81   41  108 1    
    82   41  109 1    
    83   42   43 2    
    84   42   44 am   BACKBONE|DICT|INTERRES
    85   44   45 1    
    86   44  110 1    
    87   45   46 1    
    88   45   47 1    
    89   45  111 1    
    90   46  112 1    
    91   46  113 1    
    92   46  114 1    
    93   47   48 2    
    94   47   49 am   BACKBONE|DICT|INTERRES
    95   49   50 1    
    96   49  115 1    
    97   50   51 1    
    98   50   52 1    
    99   50  116 1    
   100   51  117 1    
   101   51  118 1    
   102   51  119 1    
   103   52   53 2    
   104   52   54 am   BACKBONE|DICT|INTERRES
   105   54   55 1    
   106   54  120 1    
   107   55   56 1    
   108   55   57 1    
   109   55  121 1    
   110   56  122 1    
   111   56  123 1    
   112   56  124 1    
   113   57   58 2    
   114   57   59 am   BACKBONE|DICT|INTERRES
   115   59   60 1    
   116   59  125 1    
   117   60   61 1    
   118   60   62 1    
   119   60  126 1    
   120   61  127 1    
   121   61  128 1    
   122   61  129 1    
   123   62   63 2    
   124   62   64 am   BACKBONE|DICT|INTERRES
   125   64   65 1    
   126   64  130 1    
   127   65   66 1    
   128   65   69 1    
   129   65  131 1    
   130   66   67 am   BACKBONE|DICT|INTERRES
   131   66   68 2    
   132   67  132 1    
   133   67  133 1    
   134   69   70 1    
   135   69  134 1    
   136   69  135 1    
   137   70   71 1    
   138   71  136 1    
   139   71  137 1    
@<TRIPOS>SUBSTRUCTURE
     1 UNK         1 GROUP             0       ****    0 ROOT    
