@<TRIPOS>MOLECULE
3R136
137   139    1
SMALL
USER_CHARGES


@<TRIPOS>ATOM
      1 CA         26.2282   18.7611    1.3673 C.3       0 UNK        -0.1979 
      2 C          27.5878   19.3481    1.0175 C.2       0 UNK         0.4864 
      3 O          28.6123   18.8214    1.4539 O.2       0 UNK        -0.5359 
      4 N          27.6046   20.4306    0.2338 N.am      1 UNK        -0.4318 
      5 CA         28.8005   21.1246   -0.2369 C.3       1 UNK         0.0824 
      6 C6         29.3855   22.0736    0.8430 C.3       12 UNK        -0.0944 
      7 S7         31.1264   22.5206    0.5221 S.3       12 UNK        -0.2672 
      8 C8         31.8004   22.5961    2.2108 C.3       12 UNK         0.0333 
      9 C9         31.3024   23.8256    2.9561 C.ar      12 UNK        -0.0807 
     10 C10        31.9613   25.0482    2.8055 C.ar      12 UNK        -0.0894 
     11 C11        31.5215   26.1884    3.4904 C.ar      12 UNK        -0.0804 
     12 C12        30.4004   26.0918    4.3218 C.ar      12 UNK        -0.0824 
     13 C13        29.7257   24.8765    4.4719 C.ar      12 UNK        -0.0762 
     14 C14        30.1866   23.7450    3.7931 C.ar      12 UNK        -0.0782 
     15 C15        28.4984   24.7755    5.3642 C.3       12 UNK         0.0230 
     16 S16        26.9675   25.0143    4.4048 S.3       12 UNK        -0.2608 
     17 C17        26.4230   26.6781    4.9253 C.3       12 UNK        -0.0989 
     18 CA         26.8592   27.8078    3.9594 C.3       5 UNK         0.0716 
     19 N          26.4427   27.5522    2.5723 N.am      5 UNK        -0.4135 
     20 C          26.7910   28.2968    1.5156 C.2       4 UNK         0.5031 
     21 O          27.4460   29.3383    1.5933 O.2       4 UNK        -0.5229 
     22 CA         26.3249   27.8183    0.1363 C.3       4 UNK         0.0329 
     23 CB         25.4829   28.8983   -0.5645 C.3       4 UNK        -0.2001 
     24 N          27.5030   27.5154   -0.6724 N.am      4 UNK        -0.4303 
     25 C          28.1664   26.3556   -0.6122 C.2       3 UNK         0.5044 
     26 O          27.7863   25.3802    0.0393 O.2       3 UNK        -0.5152 
     27 CA         29.5011   26.2916   -1.3688 C.3       3 UNK         0.0319 
     28 CB         30.6676   26.5753   -0.4079 C.3       3 UNK        -0.2001 
     29 N          29.6841   24.9700   -1.9643 N.am      3 UNK        -0.4354 
     30 C          29.1186   24.5673   -3.1114 C.2       2 UNK         0.4964 
     31 O          28.4684   25.3065   -3.8515 O.2       2 UNK        -0.5047 
     32 CA         29.3055   23.0891   -3.5009 C.3       2 UNK         0.0288 
     33 CB         30.5374   22.9200   -4.4053 C.3       2 UNK        -0.2113 
     34 N          29.4393   22.2171   -2.3314 N.am      2 UNK        -0.4145 
     35 C          28.4256   21.8803   -1.5231 C.2       1 UNK         0.5006 
     36 O          27.2431   22.1572   -1.7501 O.2       1 UNK        -0.5103 
     37 C          26.3905   29.1752    4.5053 C.2       5 UNK         0.5055 
     38 O          27.0533   29.7305    5.3815 O.2       5 UNK        -0.5220 
     39 N          25.2686   29.6932    3.9824 N.am      6 UNK        -0.4450 
     40 CA         24.7286   31.0146    4.3113 C.3       6 UNK         0.0367 
     41 CB         23.2816   31.1126    3.8013 C.3       6 UNK        -0.1929 
     42 C          25.5743   32.1736    3.7517 C.2       6 UNK         0.5070 
     43 O          25.6010   33.2426    4.3621 O.2       6 UNK        -0.5237 
     44 N          26.2404   31.9510    2.6101 N.am      7 UNK        -0.4739 
     45 CA         27.1678   32.9046    1.9978 C.3       7 UNK         0.0276 
     46 CB         27.1386   32.7434    0.4684 C.3       7 UNK        -0.1927 
     47 C          28.5888   32.7024    2.5433 C.2       7 UNK         0.5013 
     48 O          29.2394   33.6798    2.9162 O.2       7 UNK        -0.5193 
     49 N          29.0158   31.4322    2.5992 N.am      8 UNK        -0.4253 
     50 CA         30.3104   30.9345    3.0675 C.3       8 UNK         0.0242 
     51 CB         30.4641   31.1715    4.5876 C.3       8 UNK        -0.2000 
     52 C          31.5037   31.4535    2.2350 C.2       8 UNK         0.4948 
     53 O          31.3304   31.8692    1.0869 O.2       8 UNK        -0.5275 
     54 N          32.6980   31.3805    2.8285 N.am      9 UNK        -0.4246 
     55 CA         33.9996   31.8101    2.3229 C.3       9 UNK         0.0261 
     56 CB         34.4312   30.9875    1.0857 C.3       9 UNK        -0.1959 
     57 C          34.9660   31.6860    3.5135 C.2       9 UNK         0.5033 
     58 O          34.5255   31.8443    4.6560 O.2       9 UNK        -0.5390 
     59 N          36.2368   31.3352    3.2646 N.am      10 UNK        -0.4215 
     60 CA         37.2373   31.0187    4.2980 C.3       10 UNK         0.0240 
     61 CB         38.5940   30.7491    3.6272 C.3       10 UNK        -0.1982 
     62 C          36.8405   29.8368    5.2097 C.2       10 UNK         0.4970 
     63 O          37.2675   29.7873    6.3634 O.2       10 UNK        -0.4916 
     64 N          36.0049   28.9362    4.6801 N.am      11 UNK        -0.4279 
     65 CA         35.2819   27.8774    5.3969 C.3       11 UNK         0.1003 
     66 C          34.1804   28.3717    6.3832 C.2       11 UNK         0.5709 
     67 N          33.8034   29.6453    6.4013 N.am      11 UNK        -0.7358 
     68 O          33.6629   27.5769    7.1639 O.2       11 UNK        -0.4999 
     69 C69        34.7344   26.8056    4.4102 C.3       12 UNK        -0.0954 
     70 S70        33.9708   27.4924    2.8954 S.3       12 UNK        -0.2268 
     71 C71        32.1979   27.5470    3.3183 C.3       12 UNK         0.0203 
     72 H72        26.1615   17.7321    1.0150 H         1 UNK         0.0888 
     73 H73        26.0860   18.7621    2.4477 H         1 UNK         0.0888 
     74 H74        25.4123   19.3271    0.9178 H         1 UNK         0.0888 
     75 H75        26.7457   20.8134   -0.1446 H         1 UNK         0.3017 
     76 H76        29.5427   20.3671   -0.4996 H         1 UNK         0.0873 
     77 H77        29.3418   21.5819    1.8153 H         1 UNK         0.0745 
     78 H78        28.7904   22.9836    0.9459 H         1 UNK         0.0745 
     79 H79        31.5483   21.6838    2.7538 H         1 UNK         0.0705 
     80 H80        32.8896   22.6207    2.1521 H         1 UNK         0.0705 
     81 H81        32.8115   25.1060    2.1406 H         1 UNK         0.1334 
     82 H82        30.0450   26.9673    4.8475 H         1 UNK         0.1417 
     83 H83        29.6671   22.8037    3.9088 H         1 UNK         0.1562 
     84 H84        28.5652   25.4905    6.1850 H         1 UNK         0.0748 
     85 H85        28.4651   23.7900    5.8313 H         1 UNK         0.0748 
     86 H86        26.7824   26.8760    5.9371 H         1 UNK         0.0940 
     87 H87        25.3341   26.6525    5.0039 H         1 UNK         0.0940 
     88 H88        27.9503   27.8389    3.9521 H         1 UNK         0.0703 
     89 H89        25.9383   26.6906    2.4180 H         1 UNK         0.3081 
     90 H90        25.7091   26.9226    0.2453 H         1 UNK         0.0719 
     91 H91        26.0454   29.8199   -0.7189 H         1 UNK         0.0809 
     92 H92        25.1328   28.5551   -1.5382 H         1 UNK         0.0809 
     93 H93        24.6007   29.1501    0.0256 H         1 UNK         0.0809 
     94 H94        27.9047   28.2854   -1.1880 H         1 UNK         0.2990 
     95 H95        29.5077   27.0454   -2.1593 H         1 UNK         0.0690 
     96 H96        30.5742   27.5646    0.0424 H         1 UNK         0.0788 
     97 H97        31.6275   26.5417   -0.9233 H         1 UNK         0.0788 
     98 H98        30.6980   25.8500    0.4059 H         1 UNK         0.0788 
     99 H99        30.1552   24.2846   -1.3917 H         1 UNK         0.2993 
    100 H100       28.4213   22.7819   -4.0643 H         1 UNK         0.0949 
    101 H101       30.6444   21.8881   -4.7408 H         1 UNK         0.0767 
    102 H102       30.4537   23.5423   -5.2975 H         1 UNK         0.0767 
    103 H103       31.4579   23.2051   -3.8939 H         1 UNK         0.0767 
    104 H104       30.3774   21.9480   -2.0683 H         1 UNK         0.3013 
    105 H105       24.7738   29.1579    3.2841 H         1 UNK         0.3121 
    106 H106       24.7140   31.1141    5.3990 H         1 UNK         0.0774 
    107 H107       22.8439   32.0787    4.0568 H         1 UNK         0.0815 
    108 H108       23.2260   31.0073    2.7170 H         1 UNK         0.0815 
    109 H109       22.6494   30.3450    4.2479 H         1 UNK         0.0815 
    110 H110       26.2154   31.0235    2.2061 H         1 UNK         0.2987 
    111 H111       26.8565   33.9248    2.2344 H         1 UNK         0.0949 
    112 H112       27.4536   31.7470    0.1565 H         1 UNK         0.0806 
    113 H113       26.1390   32.9188    0.0705 H         1 UNK         0.0806 
    114 H114       27.8087   33.4594   -0.0093 H         1 UNK         0.0806 
    115 H115       28.4010   30.7144    2.2176 H         1 UNK         0.3010 
    116 H116       30.2694   29.8581    2.9041 H         1 UNK         0.0829 
    117 H117       30.6421   32.2229    4.8171 H         1 UNK         0.0813 
    118 H118       29.5672   30.8644    5.1256 H         1 UNK         0.0813 
    119 H119       31.2903   30.5959    5.0053 H         1 UNK         0.0813 
    120 H120       32.7363   31.0996    3.8008 H         1 UNK         0.3038 
    121 H121       33.9349   32.8656    2.0532 H         1 UNK         0.0769 
    122 H122       34.5587   29.9315    1.3223 H         1 UNK         0.0811 
    123 H123       35.3710   31.3534    0.6713 H         1 UNK         0.0811 
    124 H124       33.6985   31.0546    0.2822 H         1 UNK         0.0811 
    125 H125       36.5256   31.2225    2.3033 H         1 UNK         0.3204 
    126 H126       37.3390   31.8983    4.9371 H         1 UNK         0.0748 
    127 H127       39.3625   30.5374    4.3722 H         1 UNK         0.0771 
    128 H128       38.5491   29.8925    2.9533 H         1 UNK         0.0771 
    129 H129       38.9324   31.6122    3.0534 H         1 UNK         0.0771 
    130 H130       35.7230   29.0552    3.7188 H         1 UNK         0.2980 
    131 H131       36.0164   27.3781    6.0312 H         1 UNK         0.0545 
    132 H132       33.1041   29.9313    7.0669 H         1 UNK         0.3459 
    133 H133       34.2285   30.3381    5.7937 H         1 UNK         0.3459 
    134 H134       35.5656   26.1815    4.0796 H         1 UNK         0.0616 
    135 H135       34.0412   26.1181    4.8987 H         1 UNK         0.0616 
    136 H136       32.0718   28.1523    4.2168 H         1 UNK         0.0634 
    137 H137       31.6860   28.0712    2.5118 H         1 UNK         0.0634 
@<TRIPOS>BOND
     1    1    2 1    
     2    1   72 1    
     3    1   73 1    
     4    1   74 1    
     5    2    3 2    
     6    2    4 am   BACKBONE|DICT|INTERRES
     7    4    5 1    
     8    4   75 1    
     9    5    6 1    
    10    5   35 1    
    11    5   76 1    
    12    6    7 1    
    13    6   77 1    
    14    6   78 1    
    15    7    8 1    
    16    8    9 1    
    17    8   79 1    
    18    8   80 1    
    19    9   10 ar   
    20    9   14 ar   
    21   10   11 ar   
    22   10   81 1    
    23   11   12 ar   
    24   11   71 1    
    25   12   13 ar   
    26   12   82 1    
    27   13   14 ar   
    28   13   15 1    
    29   14   83 1    
    30   15   16 1    
    31   15   84 1    
    32   15   85 1    
    33   16   17 1    
    34   17   18 1    
    35   17   86 1    
    36   17   87 1    
    37   18   19 1    
    38   18   37 1    
    39   18   88 1    
    40   19   20 am   BACKBONE|DICT|INTERRES
    41   19   89 1    
    42   20   21 2    
    43   20   22 1    
    44   22   23 1    
    45   22   24 1    
    46   22   90 1    
    47   23   91 1    
    48   23   92 1    
    49   23   93 1    
    50   24   25 am   BACKBONE|DICT|INTERRES
    51   24   94 1    
    52   25   26 2    
    53   25   27 1    
    54   27   28 1    
    55   27   29 1    
    56   27   95 1    
    57   28   96 1    
    58   28   97 1    
    59   28   98 1    
    60   29   30 am   BACKBONE|DICT|INTERRES
    61   29   99 1    
    62   30   31 2    
    63   30   32 1    
    64   32   33 1    
    65   32   34 1    
    66   32  100 1    
    67   33  101 1    
    68   33  102 1    
    69   33  103 1    
    70   34   35 am   BACKBONE|DICT|INTERRES
    71   34  104 1    
    72   35   36 2    
    73   37   38 2    
    74   37   39 am   BACKBONE|DICT|INTERRES
    75   39   40 1    
    76   39  105 1    
    77   40   41 1    
    78   40   42 1    
    79   40  106 1    
    80   41  107 1    
    81   41  108 1    
    82   41  109 1    
    83   42   43 2    
    84   42   44 am   BACKBONE|DICT|INTERRES
    85   44   45 1    
    86   44  110 1    
    87   45   46 1    
    88   45   47 1    
    89   45  111 1    
    90   46  112 1    
    91   46  113 1    
    92   46  114 1    
    93   47   48 2    
    94   47   49 am   BACKBONE|DICT|INTERRES
    95   49   50 1    
    96   49  115 1    
    97   50   51 1    
    98   50   52 1    
    99   50  116 1    
   100   51  117 1    
   101   51  118 1    
   102   51  119 1    
   103   52   53 2    
   104   52   54 am   BACKBONE|DICT|INTERRES
   105   54   55 1    
   106   54  120 1    
   107   55   56 1    
   108   55   57 1    
   109   55  121 1    
   110   56  122 1    
   111   56  123 1    
   112   56  124 1    
   113   57   58 2    
   114   57   59 am   BACKBONE|DICT|INTERRES
   115   59   60 1    
   116   59  125 1    
   117   60   61 1    
   118   60   62 1    
   119   60  126 1    
   120   61  127 1    
   121   61  128 1    
   122   61  129 1    
   123   62   63 2    
   124   62   64 am   BACKBONE|DICT|INTERRES
   125   64   65 1    
   126   64  130 1    
   127   65   66 1    
   128   65   69 1    
   129   65  131 1    
   130   66   67 am   BACKBONE|DICT|INTERRES
   131   66   68 2    
   132   67  132 1    
   133   67  133 1    
   134   69   70 1    
   135   69  134 1    
   136   69  135 1    
   137   70   71 1    
   138   71  136 1    
   139   71  137 1    
@<TRIPOS>SUBSTRUCTURE
     1 UNK         1 GROUP             0       ****    0 ROOT    
