@<TRIPOS>MOLECULE
3R136
137   139    1
SMALL
USER_CHARGES


@<TRIPOS>ATOM
      1 CA         26.5529   23.5146    2.5197 C.3       0 UNK        -0.1979 
      2 C          27.1664   22.2913    1.8572 C.2       0 UNK         0.4864 
      3 O          26.4472   21.3497    1.5130 O.2       0 UNK        -0.5359 
      4 N          28.4913   22.2976    1.6659 N.am      1 UNK        -0.4318 
      5 CA         29.2524   21.2323    1.0080 C.3       1 UNK         0.0824 
      6 C6         30.7305   21.2042    1.4725 C.3       12 UNK        -0.0944 
      7 S7         30.8672   20.9397    3.2737 S.3       12 UNK        -0.2672 
      8 C8         32.0731   22.2149    3.7566 C.3       12 UNK         0.0333 
      9 C9         31.5337   23.6333    3.6164 C.ar      12 UNK        -0.0807 
     10 C10        32.0134   24.4706    2.6035 C.ar      12 UNK        -0.0894 
     11 C11        31.5955   25.8019    2.5153 C.ar      12 UNK        -0.0804 
     12 C12        30.6936   26.2894    3.4682 C.ar      12 UNK        -0.0824 
     13 C13        30.1789   25.4602    4.4658 C.ar      12 UNK        -0.0762 
     14 C14        30.6016   24.1287    4.5343 C.ar      12 UNK        -0.0782 
     15 C15        29.1987   26.0185    5.4885 C.3       12 UNK         0.0230 
     16 S16        27.5343   26.2447    4.7790 S.3       12 UNK        -0.2608 
     17 C17        27.4336   28.0473    4.4787 C.3       12 UNK        -0.0989 
     18 CA         27.6082   28.4608    2.9933 C.3       5 UNK         0.0716 
     19 N          26.7327   27.7075    2.0900 N.am      5 UNK        -0.4135 
     20 C          26.8057   27.7415    0.7528 C.2       4 UNK         0.5031 
     21 O          27.6048   28.4347    0.1158 O.2       4 UNK        -0.5229 
     22 CA         25.7954   26.8651   -0.0079 C.3       4 UNK         0.0329 
     23 CB         24.5489   27.6824   -0.3867 C.3       4 UNK        -0.2001 
     24 N          26.3893   26.2971   -1.2217 N.am      4 UNK        -0.4303 
     25 C          27.3574   25.3720   -1.2180 C.2       3 UNK         0.5044 
     26 O          27.8110   24.8576   -0.1939 O.2       3 UNK        -0.5152 
     27 CA         27.9282   24.9554   -2.5825 C.3       3 UNK         0.0319 
     28 CB         29.2795   25.6465   -2.8327 C.3       3 UNK        -0.2001 
     29 N          28.1180   23.5065   -2.6007 N.am      3 UNK        -0.4354 
     30 C          27.1361   22.6141   -2.7783 C.2       2 UNK         0.4964 
     31 O          26.0027   22.9102   -3.1600 O.2       2 UNK        -0.5047 
     32 CA         27.4520   21.1500   -2.4247 C.3       2 UNK         0.0288 
     33 CB         28.3819   20.4908   -3.4639 C.3       2 UNK        -0.2113 
     34 N          27.9449   20.9956   -1.0467 N.am      2 UNK        -0.4145 
     35 C          29.1172   21.3844   -0.5206 C.2       1 UNK         0.5006 
     36 O          30.0312   21.8943   -1.1747 O.2       1 UNK        -0.5103 
     37 C          27.4064   29.9815    2.8296 C.2       5 UNK         0.5055 
     38 O          26.2693   30.4280    2.6448 O.2       5 UNK        -0.5220 
     39 N          28.5055   30.7394    2.9200 N.am      6 UNK        -0.4450 
     40 CA         28.5234   32.1988    2.8271 C.3       6 UNK         0.0367 
     41 CB         29.5339   32.6195    1.7408 C.3       6 UNK        -0.1929 
     42 C          28.8366   32.7450    4.2268 C.2       6 UNK         0.5070 
     43 O          28.0547   32.5093    5.1515 O.2       6 UNK        -0.5237 
     44 N          29.9879   33.4106    4.3948 N.am      7 UNK        -0.4739 
     45 CA         30.5624   33.7730    5.6936 C.3       7 UNK         0.0276 
     46 CB         31.5845   34.9071    5.4928 C.3       7 UNK        -0.1927 
     47 C          31.1732   32.5217    6.3529 C.2       7 UNK         0.5013 
     48 O          32.3967   32.3798    6.4111 O.2       7 UNK        -0.5193 
     49 N          30.2904   31.5961    6.7555 N.am      8 UNK        -0.4253 
     50 CA         30.5791   30.2205    7.1637 C.3       8 UNK         0.0242 
     51 CB         31.3065   30.1911    8.5286 C.3       8 UNK        -0.2000 
     52 C          31.2993   29.4690    6.0260 C.2       8 UNK         0.4948 
     53 O          30.7748   29.4307    4.9098 O.2       8 UNK        -0.5275 
     54 N          32.4808   28.9124    6.3196 N.am      9 UNK        -0.4246 
     55 CA         33.3273   28.1682    5.3859 C.3       9 UNK         0.0261 
     56 CB         34.3698   27.3709    6.1870 C.3       9 UNK        -0.1959 
     57 C          34.0143   29.0309    4.3097 C.2       9 UNK         0.5033 
     58 O          34.5662   28.4637    3.3652 O.2       9 UNK        -0.5390 
     59 N          33.9940   30.3663    4.4389 N.am      10 UNK        -0.4215 
     60 CA         34.5834   31.2931    3.4670 C.3       10 UNK         0.0240 
     61 CB         34.9738   32.6028    4.1765 C.3       10 UNK        -0.1982 
     62 C          33.6491   31.5155    2.2611 C.2       10 UNK         0.4970 
     63 O          33.1863   32.6354    2.0364 O.2       10 UNK        -0.4916 
     64 N          33.3796   30.4357    1.5177 N.am      11 UNK        -0.4279 
     65 CA         32.6252   30.4369    0.2557 C.3       11 UNK         0.1003 
     66 C          33.3661   31.2030   -0.8750 C.2       11 UNK         0.5709 
     67 N          32.6317   31.8491   -1.7710 N.am      11 UNK        -0.7358 
     68 O          34.5928   31.1828   -0.9708 O.2       11 UNK        -0.4999 
     69 C69        32.2661   28.9996   -0.2022 C.3       12 UNK        -0.0954 
     70 S70        31.1715   28.1461    0.9793 S.3       12 UNK        -0.2268 
     71 C71        32.1838   26.6905    1.4181 C.3       12 UNK         0.0203 
     72 H72        26.2923   23.2951    3.5550 H         1 UNK         0.0888 
     73 H73        27.2440   24.3583    2.5086 H         1 UNK         0.0888 
     74 H74        25.6488   23.8160    1.9907 H         1 UNK         0.0888 
     75 H75        29.0272   23.1125    1.9326 H         1 UNK         0.3017 
     76 H76        28.8127   20.2686    1.2783 H         1 UNK         0.0873 
     77 H77        31.2708   20.3967    0.9745 H         1 UNK         0.0745 
     78 H78        31.2396   22.1278    1.1913 H         1 UNK         0.0745 
     79 H79        32.3597   22.0460    4.7960 H         1 UNK         0.0705 
     80 H80        32.9839   22.0853    3.1690 H         1 UNK         0.0705 
     81 H81        32.7371   24.0919    1.8943 H         1 UNK         0.1334 
     82 H82        30.4039   27.3270    3.4574 H         1 UNK         0.1417 
     83 H83        30.2274   23.4818    5.3163 H         1 UNK         0.1562 
     84 H84        29.5797   26.9557    5.8939 H         1 UNK         0.0748 
     85 H85        29.1174   25.3392    6.3384 H         1 UNK         0.0748 
     86 H86        28.1656   28.5628    5.1025 H         1 UNK         0.0940 
     87 H87        26.4585   28.3760    4.8443 H         1 UNK         0.0940 
     88 H88        28.6274   28.2337    2.6858 H         1 UNK         0.0703 
     89 H89        26.0332   27.1316    2.5353 H         1 UNK         0.3081 
     90 H90        25.4872   26.0385    0.6367 H         1 UNK         0.0719 
     91 H91        24.0706   28.1004    0.5009 H         1 UNK         0.0809 
     92 H92        24.7990   28.5174   -1.0434 H         1 UNK         0.0809 
     93 H93        23.8064   27.0645   -0.8932 H         1 UNK         0.0809 
     94 H94        26.0986   26.6995   -2.1006 H         1 UNK         0.2990 
     95 H95        27.2331   25.2401   -3.3762 H         1 UNK         0.0690 
     96 H96        29.1694   26.7324   -2.8295 H         1 UNK         0.0788 
     97 H97        29.6970   25.3642   -3.7997 H         1 UNK         0.0788 
     98 H98        30.0106   25.3923   -2.0624 H         1 UNK         0.0788 
     99 H99        28.9889   23.1578   -2.2095 H         1 UNK         0.2993 
    100 H100       26.5027   20.6110   -2.4558 H         1 UNK         0.0949 
    101 H101       28.5644   19.4432   -3.2225 H         1 UNK         0.0767 
    102 H102       27.9318   20.5212   -4.4577 H         1 UNK         0.0767 
    103 H103       29.3481   20.9921   -3.5346 H         1 UNK         0.0767 
    104 H104       27.2431   20.6940   -0.3776 H         1 UNK         0.3013 
    105 H105       29.3819   30.2977    3.1758 H         1 UNK         0.3121 
    106 H106       27.5424   32.5869    2.5443 H         1 UNK         0.0774 
    107 H107       29.5626   33.7036    1.6234 H         1 UNK         0.0815 
    108 H108       30.5431   32.2794    1.9718 H         1 UNK         0.0815 
    109 H109       29.2600   32.2011    0.7714 H         1 UNK         0.0815 
    110 H110       30.5892   33.5347    3.5917 H         1 UNK         0.2987 
    111 H111       29.7729   34.1451    6.3516 H         1 UNK         0.0949 
    112 H112       32.3625   34.6330    4.7801 H         1 UNK         0.0806 
    113 H113       31.1008   35.8117    5.1239 H         1 UNK         0.0806 
    114 H114       32.0754   35.1632    6.4331 H         1 UNK         0.0806 
    115 H115       29.3149   31.7945    6.5525 H         1 UNK         0.3010 
    116 H116       29.6150   29.7251    7.2900 H         1 UNK         0.0829 
    117 H117       32.2885   30.6642    8.4888 H         1 UNK         0.0813 
    118 H118       30.7251   30.7149    9.2877 H         1 UNK         0.0813 
    119 H119       31.4394   29.1687    8.8853 H         1 UNK         0.0813 
    120 H120       32.8364   29.0241    7.2585 H         1 UNK         0.3038 
    121 H121       32.6957   27.4530    4.8589 H         1 UNK         0.0769 
    122 H122       35.0337   28.0267    6.7519 H         1 UNK         0.0811 
    123 H123       34.9929   26.7676    5.5248 H         1 UNK         0.0811 
    124 H124       33.8930   26.6858    6.8887 H         1 UNK         0.0811 
    125 H125       33.4870   30.7817    5.2123 H         1 UNK         0.3204 
    126 H126       35.5065   30.8582    3.0766 H         1 UNK         0.0748 
    127 H127       35.4681   33.2879    3.4858 H         1 UNK         0.0771 
    128 H128       34.1043   33.1193    4.5794 H         1 UNK         0.0771 
    129 H129       35.6642   32.4188    5.0001 H         1 UNK         0.0771 
    130 H130       33.7884   29.5531    1.8025 H         1 UNK         0.2980 
    131 H131       31.6898   30.9652    0.4431 H         1 UNK         0.0545 
    132 H132       33.0947   32.3389   -2.5208 H         1 UNK         0.3459 
    133 H133       31.6253   31.8601   -1.7125 H         1 UNK         0.3459 
    134 H134       33.1713   28.4121   -0.3660 H         1 UNK         0.0616 
    135 H135       31.7422   29.0232   -1.1596 H         1 UNK         0.0616 
    136 H136       32.3305   26.0997    0.5122 H         1 UNK         0.0634 
    137 H137       33.1710   27.0234    1.7361 H         1 UNK         0.0634 
@<TRIPOS>BOND
     1    1    2 1    
     2    1   72 1    
     3    1   73 1    
     4    1   74 1    
     5    2    3 2    
     6    2    4 am   BACKBONE|DICT|INTERRES
     7    4    5 1    
     8    4   75 1    
     9    5    6 1    
    10    5   35 1    
    11    5   76 1    
    12    6    7 1    
    13    6   77 1    
    14    6   78 1    
    15    7    8 1    
    16    8    9 1    
    17    8   79 1    
    18    8   80 1    
    19    9   10 ar   
    20    9   14 ar   
    21   10   11 ar   
    22   10   81 1    
    23   11   12 ar   
    24   11   71 1    
    25   12   13 ar   
    26   12   82 1    
    27   13   14 ar   
    28   13   15 1    
    29   14   83 1    
    30   15   16 1    
    31   15   84 1    
    32   15   85 1    
    33   16   17 1    
    34   17   18 1    
    35   17   86 1    
    36   17   87 1    
    37   18   19 1    
    38   18   37 1    
    39   18   88 1    
    40   19   20 am   BACKBONE|DICT|INTERRES
    41   19   89 1    
    42   20   21 2    
    43   20   22 1    
    44   22   23 1    
    45   22   24 1    
    46   22   90 1    
    47   23   91 1    
    48   23   92 1    
    49   23   93 1    
    50   24   25 am   BACKBONE|DICT|INTERRES
    51   24   94 1    
    52   25   26 2    
    53   25   27 1    
    54   27   28 1    
    55   27   29 1    
    56   27   95 1    
    57   28   96 1    
    58   28   97 1    
    59   28   98 1    
    60   29   30 am   BACKBONE|DICT|INTERRES
    61   29   99 1    
    62   30   31 2    
    63   30   32 1    
    64   32   33 1    
    65   32   34 1    
    66   32  100 1    
    67   33  101 1    
    68   33  102 1    
    69   33  103 1    
    70   34   35 am   BACKBONE|DICT|INTERRES
    71   34  104 1    
    72   35   36 2    
    73   37   38 2    
    74   37   39 am   BACKBONE|DICT|INTERRES
    75   39   40 1    
    76   39  105 1    
    77   40   41 1    
    78   40   42 1    
    79   40  106 1    
    80   41  107 1    
    81   41  108 1    
    82   41  109 1    
    83   42   43 2    
    84   42   44 am   BACKBONE|DICT|INTERRES
    85   44   45 1    
    86   44  110 1    
    87   45   46 1    
    88   45   47 1    
    89   45  111 1    
    90   46  112 1    
    91   46  113 1    
    92   46  114 1    
    93   47   48 2    
    94   47   49 am   BACKBONE|DICT|INTERRES
    95   49   50 1    
    96   49  115 1    
    97   50   51 1    
    98   50   52 1    
    99   50  116 1    
   100   51  117 1    
   101   51  118 1    
   102   51  119 1    
   103   52   53 2    
   104   52   54 am   BACKBONE|DICT|INTERRES
   105   54   55 1    
   106   54  120 1    
   107   55   56 1    
   108   55   57 1    
   109   55  121 1    
   110   56  122 1    
   111   56  123 1    
   112   56  124 1    
   113   57   58 2    
   114   57   59 am   BACKBONE|DICT|INTERRES
   115   59   60 1    
   116   59  125 1    
   117   60   61 1    
   118   60   62 1    
   119   60  126 1    
   120   61  127 1    
   121   61  128 1    
   122   61  129 1    
   123   62   63 2    
   124   62   64 am   BACKBONE|DICT|INTERRES
   125   64   65 1    
   126   64  130 1    
   127   65   66 1    
   128   65   69 1    
   129   65  131 1    
   130   66   67 am   BACKBONE|DICT|INTERRES
   131   66   68 2    
   132   67  132 1    
   133   67  133 1    
   134   69   70 1    
   135   69  134 1    
   136   69  135 1    
   137   70   71 1    
   138   71  136 1    
   139   71  137 1    
@<TRIPOS>SUBSTRUCTURE
     1 UNK         1 GROUP             0       ****    0 ROOT    
