@<TRIPOS>MOLECULE
3R136
137   139    1
SMALL
USER_CHARGES


@<TRIPOS>ATOM
      1 CA         25.7209   25.9638    4.0916 C.3       0 UNK        -0.1979 
      2 C          25.7524   24.8896    3.0143 C.2       0 UNK         0.4864 
      3 O          24.8741   24.8639    2.1518 O.2       0 UNK        -0.5359 
      4 N          26.7544   24.0040    3.0591 N.am      1 UNK        -0.4318 
      5 CA         26.9896   22.9502    2.0681 C.3       1 UNK         0.0824 
      6 C6         27.8610   21.8040    2.6484 C.3       12 UNK        -0.0944 
      7 S7         29.4097   22.3623    3.4442 S.3       12 UNK        -0.2672 
      8 C8         30.6972   21.5901    2.4133 C.3       12 UNK         0.0333 
      9 C9         31.7870   22.5999    2.1014 C.ar      12 UNK        -0.0807 
     10 C10        32.7896   22.8727    3.0356 C.ar      12 UNK        -0.0894 
     11 C11        33.7411   23.8645    2.7808 C.ar      12 UNK        -0.0804 
     12 C12        33.6997   24.5680    1.5725 C.ar      12 UNK        -0.0824 
     13 C13        32.7002   24.3011    0.6312 C.ar      12 UNK        -0.0762 
     14 C14        31.7579   23.3045    0.8968 C.ar      12 UNK        -0.0782 
     15 C15        32.5812   25.1522   -0.6284 C.3       12 UNK         0.0230 
     16 S16        31.1040   26.2315   -0.6022 S.3       12 UNK        -0.2608 
     17 C17        31.1001   26.7831    1.1357 C.3       12 UNK        -0.0989 
     18 CA         30.0897   27.9073    1.4438 C.3       5 UNK         0.0716 
     19 N          28.7147   27.5217    1.1046 N.am      5 UNK        -0.4135 
     20 C          27.6392   28.3148    1.2127 C.2       4 UNK         0.5031 
     21 O          27.6330   29.3626    1.8611 O.2       4 UNK        -0.5229 
     22 CA         26.3632   27.8683    0.4687 C.3       4 UNK         0.0329 
     23 CB         25.3650   29.0254    0.2506 C.3       4 UNK        -0.2001 
     24 N          26.6408   27.1932   -0.8053 N.am      4 UNK        -0.4303 
     25 C          27.3097   27.6754   -1.8645 C.2       3 UNK         0.5044 
     26 O          27.7853   28.8110   -1.9139 O.2       3 UNK        -0.5152 
     27 CA         27.4827   26.7213   -3.0674 C.3       3 UNK         0.0319 
     28 CB         28.5154   27.2385   -4.0868 C.3       3 UNK        -0.2001 
     29 N          27.8673   25.3662   -2.6621 N.am      3 UNK        -0.4354 
     30 C          27.0430   24.4289   -2.1769 C.2       2 UNK         0.4964 
     31 O          25.8317   24.6026   -2.0336 O.2       2 UNK        -0.5047 
     32 CA         27.6614   23.0867   -1.7407 C.3       2 UNK         0.0288 
     33 CB         29.1836   22.9855   -1.9777 C.3       2 UNK        -0.2113 
     34 N          27.3261   22.7671   -0.3465 N.am      2 UNK        -0.4145 
     35 C          27.5482   23.5200    0.7439 C.2       1 UNK         0.5006 
     36 O          28.1454   24.6023    0.7334 O.2       1 UNK        -0.5103 
     37 C          30.2863   28.3572    2.9028 C.2       5 UNK         0.5055 
     38 O          31.0422   29.3019    3.1462 O.2       5 UNK        -0.5220 
     39 N          29.6316   27.6482    3.8309 N.am      6 UNK        -0.4450 
     40 CA         29.7007   27.8942    5.2722 C.3       6 UNK         0.0367 
     41 CB         29.6129   26.5480    6.0108 C.3       6 UNK        -0.1929 
     42 C          28.6149   28.8644    5.7701 C.2       6 UNK         0.5070 
     43 O          28.7294   29.3540    6.8937 O.2       6 UNK        -0.5237 
     44 N          27.5873   29.1294    4.9490 N.am      7 UNK        -0.4739 
     45 CA         26.5836   30.1677    5.2084 C.3       7 UNK         0.0276 
     46 CB         25.2670   29.8145    4.5005 C.3       7 UNK        -0.1927 
     47 C          27.0982   31.5482    4.7677 C.2       7 UNK         0.5013 
     48 O          26.7822   32.5480    5.4144 O.2       7 UNK        -0.5193 
     49 N          27.9042   31.5638    3.6967 N.am      8 UNK        -0.4253 
     50 CA         28.7455   32.6777    3.2687 C.3       8 UNK         0.0242 
     51 CB         28.9600   32.5683    1.7439 C.3       8 UNK        -0.2000 
     52 C          30.0545   32.6876    4.0894 C.2       8 UNK         0.4948 
     53 O          30.0057   32.5945    5.3175 O.2       8 UNK        -0.5275 
     54 N          31.2049   32.8095    3.4172 N.am      9 UNK        -0.4246 
     55 CA         32.5315   32.8064    4.0373 C.3       9 UNK         0.0261 
     56 CB         32.9092   34.2361    4.4778 C.3       9 UNK        -0.1959 
     57 C          33.5766   32.1676    3.1094 C.2       9 UNK         0.5033 
     58 O          34.7324   32.5959    3.1119 O.2       9 UNK        -0.5390 
     59 N          33.1630   31.1652    2.3202 N.am      10 UNK        -0.4215 
     60 CA         34.0617   30.4069    1.4442 C.3       10 UNK         0.0240 
     61 CB         33.3036   29.9124    0.2033 C.3       10 UNK        -0.1982 
     62 C          34.7225   29.2420    2.1967 C.2       10 UNK         0.4970 
     63 O          35.8905   28.9494    1.9396 O.2       10 UNK        -0.4916 
     64 N          33.9808   28.6192    3.1224 N.am      11 UNK        -0.4279 
     65 CA         34.5101   27.6483    4.0853 C.3       11 UNK         0.1003 
     66 C          35.1081   28.3852    5.3135 C.2       11 UNK         0.5709 
     67 N          36.2715   27.9658    5.7916 N.am      11 UNK        -0.7358 
     68 O          34.5120   29.3187    5.8484 O.2       11 UNK        -0.4999 
     69 C69        33.4194   26.6225    4.4867 C.3       12 UNK        -0.0954 
     70 S70        34.0940   25.1065    5.2499 S.3       12 UNK        -0.2268 
     71 C71        34.7921   24.1997    3.8278 C.3       12 UNK         0.0203 
     72 H72        24.7340   26.0044    4.5519 H         1 UNK         0.0888 
     73 H73        26.4492   25.7745    4.8790 H         1 UNK         0.0888 
     74 H74        25.9316   26.9384    3.6547 H         1 UNK         0.0888 
     75 H75        27.4653   24.0735    3.7730 H         1 UNK         0.3017 
     76 H76        26.0150   22.5174    1.8301 H         1 UNK         0.0873 
     77 H77        27.2859   21.2820    3.4148 H         1 UNK         0.0745 
     78 H78        28.0667   21.0471    1.8901 H         1 UNK         0.0745 
     79 H79        31.1166   20.7326    2.9416 H         1 UNK         0.0705 
     80 H80        30.2750   21.2037    1.4849 H         1 UNK         0.0705 
     81 H81        32.8051   22.3428    3.9784 H         1 UNK         0.1334 
     82 H82        34.4202   25.3524    1.3841 H         1 UNK         0.1417 
     83 H83        30.9648   23.1143    0.1917 H         1 UNK         0.1562 
     84 H84        32.5350   24.5044   -1.5049 H         1 UNK         0.0748 
     85 H85        33.4671   25.7767   -0.7540 H         1 UNK         0.0748 
     86 H86        32.1155   27.0963    1.3848 H         1 UNK         0.0940 
     87 H87        30.8823   25.9173    1.7651 H         1 UNK         0.0940 
     88 H88        30.3202   28.7666    0.8124 H         1 UNK         0.0703 
     89 H89        28.6126   26.6296    0.6295 H         1 UNK         0.3081 
     90 H90        25.8777   27.1301    1.1042 H         1 UNK         0.0719 
     91 H91        25.0227   29.4381    1.1983 H         1 UNK         0.0809 
     92 H92        24.4800   28.6894   -0.2896 H         1 UNK         0.0809 
     93 H93        25.8129   29.8435   -0.3146 H         1 UNK         0.0809 
     94 H94        26.2910   26.2440   -0.8852 H         1 UNK         0.2990 
     95 H95        26.5155   26.6724   -3.5721 H         1 UNK         0.0690 
     96 H96        28.6001   26.5681   -4.9422 H         1 UNK         0.0788 
     97 H97        29.5051   27.3399   -3.6389 H         1 UNK         0.0788 
     98 H98        28.2296   28.2174   -4.4741 H         1 UNK         0.0788 
     99 H99        28.8554   25.1582   -2.6866 H         1 UNK         0.2993 
    100 H100       27.1819   22.3223   -2.3543 H         1 UNK         0.0949 
    101 H101       29.4212   23.0464   -3.0406 H         1 UNK         0.0767 
    102 H102       29.7245   23.7837   -1.4731 H         1 UNK         0.0767 
    103 H103       29.5764   22.0343   -1.6182 H         1 UNK         0.0767 
    104 H104       26.7981   21.9139   -0.2264 H         1 UNK         0.3013 
    105 H105       29.0603   26.8745    3.5243 H         1 UNK         0.3121 
    106 H106       30.6644   28.3480    5.5138 H         1 UNK         0.0774 
    107 H107       29.7119   26.6882    7.0880 H         1 UNK         0.0815 
    108 H108       28.6610   26.0476    5.8350 H         1 UNK         0.0815 
    109 H109       30.4102   25.8719    5.7004 H         1 UNK         0.0815 
    110 H110       27.6019   28.7391    4.0170 H         1 UNK         0.2987 
    111 H111       26.3838   30.2170    6.2814 H         1 UNK         0.0949 
    112 H112       24.8572   28.8750    4.8706 H         1 UNK         0.0806 
    113 H113       24.5142   30.5848    4.6730 H         1 UNK         0.0806 
    114 H114       25.4003   29.7257    3.4240 H         1 UNK         0.0806 
    115 H115       28.0226   30.6966    3.1811 H         1 UNK         0.3010 
    116 H116       28.2272   33.6166    3.4742 H         1 UNK         0.0829 
    117 H117       28.0047   32.5379    1.2190 H         1 UNK         0.0813 
    118 H118       29.5058   33.4273    1.3518 H         1 UNK         0.0813 
    119 H119       29.5059   31.6631    1.4723 H         1 UNK         0.0813 
    120 H120       31.1793   32.8944    2.4102 H         1 UNK         0.3038 
    121 H121       32.5095   32.1712    4.9258 H         1 UNK         0.0769 
    122 H122       32.9795   34.9122    3.6251 H         1 UNK         0.0811 
    123 H123       33.8726   34.2500    4.9890 H         1 UNK         0.0811 
    124 H124       32.1745   34.6456    5.1712 H         1 UNK         0.0811 
    125 H125       32.2253   30.7977    2.4523 H         1 UNK         0.3204 
    126 H126       34.8604   31.0639    1.0922 H         1 UNK         0.0748 
    127 H127       33.9712   29.3764   -0.4728 H         1 UNK         0.0771 
    128 H128       32.4969   29.2337    0.4644 H         1 UNK         0.0771 
    129 H129       32.8745   30.7436   -0.3566 H         1 UNK         0.0771 
    130 H130       33.0381   28.9473    3.2973 H         1 UNK         0.2980 
    131 H131       35.3146   27.1006    3.5920 H         1 UNK         0.0545 
    132 H132       36.6658   28.4288    6.5953 H         1 UNK         0.3459 
    133 H133       36.7574   27.1884    5.3727 H         1 UNK         0.3459 
    134 H134       32.7073   27.0695    5.1817 H         1 UNK         0.0616 
    135 H135       32.8294   26.3296    3.6190 H         1 UNK         0.0616 
    136 H136       35.6065   24.7776    3.3895 H         1 UNK         0.0634 
    137 H137       35.2417   23.2750    4.1919 H         1 UNK         0.0634 
@<TRIPOS>BOND
     1    1    2 1    
     2    1   72 1    
     3    1   73 1    
     4    1   74 1    
     5    2    3 2    
     6    2    4 am   BACKBONE|DICT|INTERRES
     7    4    5 1    
     8    4   75 1    
     9    5    6 1    
    10    5   35 1    
    11    5   76 1    
    12    6    7 1    
    13    6   77 1    
    14    6   78 1    
    15    7    8 1    
    16    8    9 1    
    17    8   79 1    
    18    8   80 1    
    19    9   10 ar   
    20    9   14 ar   
    21   10   11 ar   
    22   10   81 1    
    23   11   12 ar   
    24   11   71 1    
    25   12   13 ar   
    26   12   82 1    
    27   13   14 ar   
    28   13   15 1    
    29   14   83 1    
    30   15   16 1    
    31   15   84 1    
    32   15   85 1    
    33   16   17 1    
    34   17   18 1    
    35   17   86 1    
    36   17   87 1    
    37   18   19 1    
    38   18   37 1    
    39   18   88 1    
    40   19   20 am   BACKBONE|DICT|INTERRES
    41   19   89 1    
    42   20   21 2    
    43   20   22 1    
    44   22   23 1    
    45   22   24 1    
    46   22   90 1    
    47   23   91 1    
    48   23   92 1    
    49   23   93 1    
    50   24   25 am   BACKBONE|DICT|INTERRES
    51   24   94 1    
    52   25   26 2    
    53   25   27 1    
    54   27   28 1    
    55   27   29 1    
    56   27   95 1    
    57   28   96 1    
    58   28   97 1    
    59   28   98 1    
    60   29   30 am   BACKBONE|DICT|INTERRES
    61   29   99 1    
    62   30   31 2    
    63   30   32 1    
    64   32   33 1    
    65   32   34 1    
    66   32  100 1    
    67   33  101 1    
    68   33  102 1    
    69   33  103 1    
    70   34   35 am   BACKBONE|DICT|INTERRES
    71   34  104 1    
    72   35   36 2    
    73   37   38 2    
    74   37   39 am   BACKBONE|DICT|INTERRES
    75   39   40 1    
    76   39  105 1    
    77   40   41 1    
    78   40   42 1    
    79   40  106 1    
    80   41  107 1    
    81   41  108 1    
    82   41  109 1    
    83   42   43 2    
    84   42   44 am   BACKBONE|DICT|INTERRES
    85   44   45 1    
    86   44  110 1    
    87   45   46 1    
    88   45   47 1    
    89   45  111 1    
    90   46  112 1    
    91   46  113 1    
    92   46  114 1    
    93   47   48 2    
    94   47   49 am   BACKBONE|DICT|INTERRES
    95   49   50 1    
    96   49  115 1    
    97   50   51 1    
    98   50   52 1    
    99   50  116 1    
   100   51  117 1    
   101   51  118 1    
   102   51  119 1    
   103   52   53 2    
   104   52   54 am   BACKBONE|DICT|INTERRES
   105   54   55 1    
   106   54  120 1    
   107   55   56 1    
   108   55   57 1    
   109   55  121 1    
   110   56  122 1    
   111   56  123 1    
   112   56  124 1    
   113   57   58 2    
   114   57   59 am   BACKBONE|DICT|INTERRES
   115   59   60 1    
   116   59  125 1    
   117   60   61 1    
   118   60   62 1    
   119   60  126 1    
   120   61  127 1    
   121   61  128 1    
   122   61  129 1    
   123   62   63 2    
   124   62   64 am   BACKBONE|DICT|INTERRES
   125   64   65 1    
   126   64  130 1    
   127   65   66 1    
   128   65   69 1    
   129   65  131 1    
   130   66   67 am   BACKBONE|DICT|INTERRES
   131   66   68 2    
   132   67  132 1    
   133   67  133 1    
   134   69   70 1    
   135   69  134 1    
   136   69  135 1    
   137   70   71 1    
   138   71  136 1    
   139   71  137 1    
@<TRIPOS>SUBSTRUCTURE
     1 UNK         1 GROUP             0       ****    0 ROOT    
