@<TRIPOS>MOLECULE
3R136
137   139    1
SMALL
USER_CHARGES


@<TRIPOS>ATOM
      1 CA         26.3684   19.8591    3.5188 C.3       0 UNK        -0.1979 
      2 C          26.6077   20.9586    2.4957 C.2       0 UNK         0.4864 
      3 O          25.7250   21.7883    2.2738 O.2       0 UNK        -0.5359 
      4 N          27.8011   20.9819    1.8833 N.am      1 UNK        -0.4318 
      5 CA         28.2276   21.9478    0.8587 C.3       1 UNK         0.0824 
      6 C6         29.6394   21.6284    0.3045 C.3       12 UNK        -0.0944 
      7 S7         30.9288   21.5026    1.5952 S.3       12 UNK        -0.2672 
      8 C8         32.4503   21.6636    0.6114 C.3       12 UNK         0.0333 
      9 C9         32.7866   23.1156    0.2993 C.ar      12 UNK        -0.0807 
     10 C10        33.4583   23.8972    1.2456 C.ar      12 UNK        -0.0894 
     11 C11        33.8252   25.2136    0.9485 C.ar      12 UNK        -0.0804 
     12 C12        33.5099   25.7473   -0.3048 C.ar      12 UNK        -0.0824 
     13 C13        32.8201   24.9849   -1.2517 C.ar      12 UNK        -0.0762 
     14 C14        32.4662   23.6665   -0.9458 C.ar      12 UNK        -0.0782 
     15 C15        32.4785   25.5797   -2.6124 C.3       12 UNK         0.0230 
     16 S16        31.3403   26.9991   -2.4950 S.3       12 UNK        -0.2608 
     17 C17        29.8298   26.2061   -1.8487 C.3       12 UNK        -0.0989 
     18 CA         28.9285   27.1998   -1.0721 C.3       5 UNK         0.0716 
     19 N          27.5974   26.6362   -0.8840 N.am      5 UNK        -0.4135 
     20 C          26.4388   27.2425   -1.1692 C.2       4 UNK         0.5031 
     21 O          26.3526   28.3928   -1.6048 O.2       4 UNK        -0.5229 
     22 CA         25.1600   26.4312   -0.9219 C.3       4 UNK         0.0329 
     23 CB         25.0092   25.3201   -1.9756 C.3       4 UNK        -0.2001 
     24 N          25.1665   25.8337    0.4144 N.am      4 UNK        -0.4303 
     25 C          24.3301   26.1647    1.4078 C.2       3 UNK         0.5044 
     26 O          23.4360   27.0037    1.3014 O.2       3 UNK        -0.5152 
     27 CA         24.5038   25.4343    2.7535 C.3       3 UNK         0.0319 
     28 CB         23.4871   24.2885    2.8765 C.3       3 UNK        -0.2001 
     29 N          25.8549   24.9058    2.9559 N.am      3 UNK        -0.4354 
     30 C          26.9331   25.6715    3.1865 C.2       2 UNK         0.4964 
     31 O          26.8776   26.8915    3.3319 O.2       2 UNK        -0.5047 
     32 CA         28.3066   24.9794    3.2589 C.3       2 UNK         0.0288 
     33 CB         28.7387   24.8136    4.7230 C.3       2 UNK        -0.2113 
     34 N          28.3785   23.6746    2.5980 N.am      2 UNK        -0.4145 
     35 C          28.1206   23.4199    1.3068 C.2       1 UNK         0.5006 
     36 O          27.7521   24.2711    0.4956 O.2       1 UNK        -0.5103 
     37 C          29.4708   27.5743    0.3182 C.2       5 UNK         0.5055 
     38 O          30.3045   26.8620    0.8740 O.2       5 UNK        -0.5220 
     39 N          28.9469   28.6728    0.8771 N.am      6 UNK        -0.4450 
     40 CA         29.3517   29.2061    2.1825 C.3       6 UNK         0.0367 
     41 CB         28.2150   30.0806    2.7356 C.3       6 UNK        -0.1929 
     42 C          30.6562   30.0238    2.1288 C.2       6 UNK         0.5070 
     43 O          31.2239   30.3147    3.1856 O.2       6 UNK        -0.5237 
     44 N          31.0715   30.4274    0.9170 N.am      7 UNK        -0.4739 
     45 CA         32.1082   31.4239    0.6213 C.3       7 UNK         0.0276 
     46 CB         33.5077   30.9167    1.0356 C.3       7 UNK        -0.1927 
     47 C          31.7157   32.7898    1.2181 C.2       7 UNK         0.5013 
     48 O          30.5439   33.1648    1.1316 O.2       7 UNK        -0.5193 
     49 N          32.6565   33.4950    1.8578 N.am      8 UNK        -0.4253 
     50 CA         32.4120   34.7388    2.5981 C.3       8 UNK         0.0242 
     51 CB         33.7171   35.5569    2.6353 C.3       8 UNK        -0.2000 
     52 C          31.8419   34.4637    4.0077 C.2       8 UNK         0.4948 
     53 O          32.3365   35.0278    4.9853 O.2       8 UNK        -0.5275 
     54 N          30.8389   33.5726    4.0850 N.am      9 UNK        -0.4246 
     55 CA         30.2371   32.9936    5.2951 C.3       9 UNK         0.0261 
     56 CB         29.3913   34.0474    6.0403 C.3       9 UNK        -0.1959 
     57 C          31.2916   32.3148    6.1939 C.2       9 UNK         0.5033 
     58 O          31.3256   32.5568    7.4027 O.2       9 UNK        -0.5390 
     59 N          32.1610   31.5140    5.5654 N.am      10 UNK        -0.4215 
     60 CA         33.3719   30.9546    6.1668 C.3       10 UNK         0.0240 
     61 CB         34.5941   31.4737    5.3900 C.3       10 UNK        -0.1982 
     62 C          33.3737   29.4208    6.1908 C.2       10 UNK         0.4970 
     63 O          33.9820   28.8493    7.0967 O.2       10 UNK        -0.4916 
     64 N          32.7232   28.7756    5.2130 N.am      11 UNK        -0.4279 
     65 CA         32.7025   27.3071    5.0827 C.3       11 UNK         0.1003 
     66 C          31.7477   26.5871    6.0762 C.2       11 UNK         0.5709 
     67 N          30.8362   27.2829    6.7464 N.am      11 UNK        -0.7358 
     68 O          31.8519   25.3768    6.2570 O.2       11 UNK        -0.4999 
     69 C69        32.4413   26.8571    3.6233 C.3       12 UNK        -0.0954 
     70 S70        33.6768   27.5394    2.4676 S.3       12 UNK        -0.2268 
     71 C71        34.5940   26.0512    1.9620 C.3       12 UNK         0.0203 
     72 H72        26.1552   20.2953    4.4943 H         1 UNK         0.0888 
     73 H73        25.5133   19.2523    3.2225 H         1 UNK         0.0888 
     74 H74        27.2317   19.2021    3.6216 H         1 UNK         0.0888 
     75 H75        28.4917   20.2842    2.1233 H         1 UNK         0.3017 
     76 H76        27.5238   21.8390    0.0307 H         1 UNK         0.0873 
     77 H77        29.9328   22.3756   -0.4347 H         1 UNK         0.0745 
     78 H78        29.6126   20.6791   -0.2326 H         1 UNK         0.0745 
     79 H79        32.3585   21.0797   -0.3059 H         1 UNK         0.0705 
     80 H80        33.2736   21.2161    1.1705 H         1 UNK         0.0705 
     81 H81        33.7076   23.4725    2.2085 H         1 UNK         0.1334 
     82 H82        33.7895   26.7656   -0.5385 H         1 UNK         0.1417 
     83 H83        31.9501   23.0645   -1.6811 H         1 UNK         0.1562 
     84 H84        32.0398   24.8276   -3.2701 H         1 UNK         0.0748 
     85 H85        33.3998   25.9080   -3.0954 H         1 UNK         0.0748 
     86 H86        30.0795   25.3419   -1.2303 H         1 UNK         0.0940 
     87 H87        29.2873   25.8078   -2.7076 H         1 UNK         0.0940 
     88 H88        28.8614   28.1177   -1.6605 H         1 UNK         0.0703 
     89 H89        27.5868   25.7105   -0.4546 H         1 UNK         0.3081 
     90 H90        24.3145   27.1135   -1.0338 H         1 UNK         0.0719 
     91 H91        25.0208   25.7342   -2.9850 H         1 UNK         0.0809 
     92 H92        25.8133   24.5851   -1.9131 H         1 UNK         0.0809 
     93 H93        24.0643   24.7897   -1.8548 H         1 UNK         0.0809 
     94 H94        25.8929   25.1540    0.6058 H         1 UNK         0.2990 
     95 H95        24.2990   26.1556    3.5475 H         1 UNK         0.0690 
     96 H96        23.5691   23.7849    3.8398 H         1 UNK         0.0788 
     97 H97        23.6261   23.5411    2.0944 H         1 UNK         0.0788 
     98 H98        22.4658   24.6622    2.7918 H         1 UNK         0.0788 
     99 H99        25.9730   23.9051    2.8406 H         1 UNK         0.2993 
    100 H100       29.0237   25.6345    2.7630 H         1 UNK         0.0949 
    101 H101       28.7458   25.7749    5.2385 H         1 UNK         0.0767 
    102 H102       28.0652   24.1536    5.2712 H         1 UNK         0.0767 
    103 H103       29.7453   24.4016    4.7937 H         1 UNK         0.0767 
    104 H104       28.6702   22.8967    3.1718 H         1 UNK         0.3013 
    105 H105       28.2309   29.1806    0.3757 H         1 UNK         0.3121 
    106 H106       29.5019   28.3742    2.8730 H         1 UNK         0.0774 
    107 H107       28.4400   30.4135    3.7491 H         1 UNK         0.0815 
    108 H108       28.0546   30.9712    2.1263 H         1 UNK         0.0815 
    109 H109       27.2751   29.5304    2.7822 H         1 UNK         0.0815 
    110 H110       30.5126   30.1416    0.1267 H         1 UNK         0.2987 
    111 H111       32.1112   31.5580   -0.4615 H         1 UNK         0.0949 
    112 H112       34.2936   31.5967    0.7052 H         1 UNK         0.0806 
    113 H113       33.7180   29.9503    0.5776 H         1 UNK         0.0806 
    114 H114       33.6018   30.7937    2.1145 H         1 UNK         0.0806 
    115 H115       33.5873   33.1086    1.9195 H         1 UNK         0.3010 
    116 H116       31.6662   35.3315    2.0638 H         1 UNK         0.0829 
    117 H117       34.5042   35.0367    3.1828 H         1 UNK         0.0813 
    118 H118       34.0857   35.7627    1.6303 H         1 UNK         0.0813 
    119 H119       33.5619   36.5202    3.1232 H         1 UNK         0.0813 
    120 H120       30.5101   33.1908    3.2042 H         1 UNK         0.3038 
    121 H121       29.5641   32.2034    4.9609 H         1 UNK         0.0769 
    122 H122       28.8649   33.5999    6.8841 H         1 UNK         0.0811 
    123 H123       28.6389   34.4869    5.3856 H         1 UNK         0.0811 
    124 H124       30.0075   34.8566    6.4337 H         1 UNK         0.0811 
    125 H125       31.9822   31.2917    4.5880 H         1 UNK         0.3204 
    126 H126       33.4683   31.2887    7.2020 H         1 UNK         0.0748 
    127 H127       35.5222   31.1059    5.8297 H         1 UNK         0.0771 
    128 H128       34.5772   31.1535    4.3478 H         1 UNK         0.0771 
    129 H129       34.6374   32.5632    5.4050 H         1 UNK         0.0771 
    130 H130       32.2399   29.2957    4.4881 H         1 UNK         0.2980 
    131 H131       33.7011   26.9474    5.3393 H         1 UNK         0.0545 
    132 H132       30.7555   28.2778    6.6155 H         1 UNK         0.3459 
    133 H133       30.2346   26.8068    7.3991 H         1 UNK         0.3459 
    134 H134       32.4414   25.7685    3.5445 H         1 UNK         0.0616 
    135 H135       31.4534   27.1802    3.2977 H         1 UNK         0.0616 
    136 H136       34.8513   25.4673    2.8471 H         1 UNK         0.0634 
    137 H137       35.5387   26.3619    1.5140 H         1 UNK         0.0634 
@<TRIPOS>BOND
     1    1    2 1    
     2    1   72 1    
     3    1   73 1    
     4    1   74 1    
     5    2    3 2    
     6    2    4 am   BACKBONE|DICT|INTERRES
     7    4    5 1    
     8    4   75 1    
     9    5    6 1    
    10    5   35 1    
    11    5   76 1    
    12    6    7 1    
    13    6   77 1    
    14    6   78 1    
    15    7    8 1    
    16    8    9 1    
    17    8   79 1    
    18    8   80 1    
    19    9   10 ar   
    20    9   14 ar   
    21   10   11 ar   
    22   10   81 1    
    23   11   12 ar   
    24   11   71 1    
    25   12   13 ar   
    26   12   82 1    
    27   13   14 ar   
    28   13   15 1    
    29   14   83 1    
    30   15   16 1    
    31   15   84 1    
    32   15   85 1    
    33   16   17 1    
    34   17   18 1    
    35   17   86 1    
    36   17   87 1    
    37   18   19 1    
    38   18   37 1    
    39   18   88 1    
    40   19   20 am   BACKBONE|DICT|INTERRES
    41   19   89 1    
    42   20   21 2    
    43   20   22 1    
    44   22   23 1    
    45   22   24 1    
    46   22   90 1    
    47   23   91 1    
    48   23   92 1    
    49   23   93 1    
    50   24   25 am   BACKBONE|DICT|INTERRES
    51   24   94 1    
    52   25   26 2    
    53   25   27 1    
    54   27   28 1    
    55   27   29 1    
    56   27   95 1    
    57   28   96 1    
    58   28   97 1    
    59   28   98 1    
    60   29   30 am   BACKBONE|DICT|INTERRES
    61   29   99 1    
    62   30   31 2    
    63   30   32 1    
    64   32   33 1    
    65   32   34 1    
    66   32  100 1    
    67   33  101 1    
    68   33  102 1    
    69   33  103 1    
    70   34   35 am   BACKBONE|DICT|INTERRES
    71   34  104 1    
    72   35   36 2    
    73   37   38 2    
    74   37   39 am   BACKBONE|DICT|INTERRES
    75   39   40 1    
    76   39  105 1    
    77   40   41 1    
    78   40   42 1    
    79   40  106 1    
    80   41  107 1    
    81   41  108 1    
    82   41  109 1    
    83   42   43 2    
    84   42   44 am   BACKBONE|DICT|INTERRES
    85   44   45 1    
    86   44  110 1    
    87   45   46 1    
    88   45   47 1    
    89   45  111 1    
    90   46  112 1    
    91   46  113 1    
    92   46  114 1    
    93   47   48 2    
    94   47   49 am   BACKBONE|DICT|INTERRES
    95   49   50 1    
    96   49  115 1    
    97   50   51 1    
    98   50   52 1    
    99   50  116 1    
   100   51  117 1    
   101   51  118 1    
   102   51  119 1    
   103   52   53 2    
   104   52   54 am   BACKBONE|DICT|INTERRES
   105   54   55 1    
   106   54  120 1    
   107   55   56 1    
   108   55   57 1    
   109   55  121 1    
   110   56  122 1    
   111   56  123 1    
   112   56  124 1    
   113   57   58 2    
   114   57   59 am   BACKBONE|DICT|INTERRES
   115   59   60 1    
   116   59  125 1    
   117   60   61 1    
   118   60   62 1    
   119   60  126 1    
   120   61  127 1    
   121   61  128 1    
   122   61  129 1    
   123   62   63 2    
   124   62   64 am   BACKBONE|DICT|INTERRES
   125   64   65 1    
   126   64  130 1    
   127   65   66 1    
   128   65   69 1    
   129   65  131 1    
   130   66   67 am   BACKBONE|DICT|INTERRES
   131   66   68 2    
   132   67  132 1    
   133   67  133 1    
   134   69   70 1    
   135   69  134 1    
   136   69  135 1    
   137   70   71 1    
   138   71  136 1    
   139   71  137 1    
@<TRIPOS>SUBSTRUCTURE
     1 UNK         1 GROUP             0       ****    0 ROOT    
