@<TRIPOS>MOLECULE
3R136
137   139    1
SMALL
USER_CHARGES


@<TRIPOS>ATOM
      1 CA         28.3844   22.2973   -0.7951 C.3       0 UNK        -0.1979 
      2 C          29.2299   23.1310   -1.7464 C.2       0 UNK         0.4864 
      3 O          29.1918   22.9151   -2.9594 O.2       0 UNK        -0.5359 
      4 N          29.9822   24.0983   -1.2102 N.am      1 UNK        -0.4318 
      5 CA         30.7966   25.0777   -1.9385 C.3       1 UNK         0.0824 
      6 C6         31.9529   25.6294   -1.0575 C.3       12 UNK        -0.0944 
      7 S7         31.4552   26.0629    0.6492 S.3       12 UNK        -0.2672 
      8 C8         32.3896   24.8297    1.6036 C.3       12 UNK         0.0333 
      9 C9         31.9770   24.8480    3.0656 C.ar      12 UNK        -0.0807 
     10 C10        32.4205   25.8714    3.9069 C.ar      12 UNK        -0.0894 
     11 C11        32.0298   25.9094    5.2478 C.ar      12 UNK        -0.0804 
     12 C12        31.1950   24.9069    5.7502 C.ar      12 UNK        -0.0824 
     13 C13        30.7563   23.8691    4.9207 C.ar      12 UNK        -0.0762 
     14 C14        31.1512   23.8444    3.5796 C.ar      12 UNK        -0.0782 
     15 C15        29.8554   22.7721    5.4699 C.3       12 UNK         0.0230 
     16 S16        28.1828   22.8407    4.7536 S.3       12 UNK        -0.2608 
     17 C17        27.6124   24.4835    5.3106 C.3       12 UNK        -0.0989 
     18 CA         27.6522   25.5512    4.1792 C.3       5 UNK         0.0716 
     19 N          26.9006   25.1642    2.9726 N.am      5 UNK        -0.4135 
     20 C          25.6013   24.8461    2.8819 C.2       4 UNK         0.5031 
     21 O          24.8207   24.8585    3.8348 O.2       4 UNK        -0.5229 
     22 CA         25.0818   24.5289    1.4658 C.3       4 UNK         0.0329 
     23 CB         23.6273   24.0216    1.4664 C.3       4 UNK        -0.2001 
     24 N          25.1749   25.7041    0.5939 N.am      4 UNK        -0.4303 
     25 C          26.3001   26.1329    0.0106 C.2       3 UNK         0.5044 
     26 O          27.3905   25.5697    0.1433 O.2       3 UNK        -0.5152 
     27 CA         26.2068   27.4381   -0.7924 C.3       3 UNK         0.0319 
     28 CB         26.6418   28.6260    0.0798 C.3       3 UNK        -0.2001 
     29 N          27.0849   27.3568   -1.9546 N.am      3 UNK        -0.4354 
     30 C          26.7675   26.7672   -3.1127 C.2       2 UNK         0.4964 
     31 O          25.6316   26.3873   -3.4000 O.2       2 UNK        -0.5047 
     32 CA         27.9191   26.5127   -4.1009 C.3       2 UNK         0.0288 
     33 CB         28.3826   27.8089   -4.7966 C.3       2 UNK        -0.2113 
     34 N          29.0308   25.7735   -3.4849 N.am      2 UNK        -0.4145 
     35 C          29.8961   26.1789   -2.5427 C.2       1 UNK         0.5006 
     36 O          29.9519   27.3363   -2.1214 O.2       1 UNK        -0.5103 
     37 C          27.2783   26.9539    4.7174 C.2       5 UNK         0.5055 
     38 O          27.7975   27.3618    5.7581 O.2       5 UNK        -0.5220 
     39 N          26.3981   27.6821    4.0172 N.am      6 UNK        -0.4450 
     40 CA         25.8616   28.9820    4.4155 C.3       6 UNK         0.0367 
     41 CB         24.4625   29.1552    3.7934 C.3       6 UNK        -0.1929 
     42 C          26.8224   30.1312    4.0616 C.2       6 UNK         0.5070 
     43 O          26.4919   30.9646    3.2174 O.2       6 UNK        -0.5237 
     44 N          27.9826   30.1501    4.7334 N.am      7 UNK        -0.4739 
     45 CA         29.0250   31.1838    4.6954 C.3       7 UNK         0.0276 
     46 CB         28.5034   32.4922    5.3283 C.3       7 UNK        -0.1927 
     47 C          29.6122   31.3986    3.2869 C.2       7 UNK         0.5013 
     48 O          29.3754   32.4400    2.6697 O.2       7 UNK        -0.5193 
     49 N          30.3702   30.4071    2.8074 N.am      8 UNK        -0.4253 
     50 CA         31.1019   30.4550    1.5437 C.3       8 UNK         0.0242 
     51 CB         30.2772   29.7557    0.4496 C.3       8 UNK        -0.2000 
     52 C          32.4697   29.7865    1.7221 C.2       8 UNK         0.4948 
     53 O          32.6589   29.0276    2.6756 O.2       8 UNK        -0.5275 
     54 N          33.3909   30.0761    0.7912 N.am      9 UNK        -0.4246 
     55 CA         34.7518   29.5362    0.6834 C.3       9 UNK         0.0261 
     56 CB         34.7098   28.0701    0.1981 C.3       9 UNK        -0.1959 
     57 C          35.5769   29.7319    1.9701 C.2       9 UNK         0.5033 
     58 O          36.1372   30.8103    2.1705 O.2       9 UNK        -0.5390 
     59 N          35.6392   28.6887    2.8072 N.am      10 UNK        -0.4215 
     60 CA         36.3424   28.6635    4.0901 C.3       10 UNK         0.0240 
     61 CB         36.5243   27.1989    4.5244 C.3       10 UNK        -0.1982 
     62 C          35.6571   29.4787    5.2041 C.2       10 UNK         0.4970 
     63 O          36.3091   29.7551    6.2121 O.2       10 UNK        -0.4916 
     64 N          34.3808   29.8380    5.0261 N.am      11 UNK        -0.4279 
     65 CA         33.5793   30.6234    5.9746 C.3       11 UNK         0.1003 
     66 C          32.8558   31.8108    5.2832 C.2       11 UNK         0.5709 
     67 N          32.1005   32.6038    6.0318 N.am      11 UNK        -0.7358 
     68 O          32.9951   32.0532    4.0867 O.2       11 UNK        -0.4999 
     69 C69        32.6560   29.7233    6.8483 C.3       12 UNK        -0.0954 
     70 S70        31.6025   28.5664    5.9047 S.3       12 UNK        -0.2268 
     71 C71        32.5324   27.0229    6.1516 C.3       12 UNK         0.0203 
     72 H72        28.5141   22.6085    0.2416 H         1 UNK         0.0888 
     73 H73        27.3291   22.3998   -1.0471 H         1 UNK         0.0888 
     74 H74        28.6560   21.2449   -0.8724 H         1 UNK         0.0888 
     75 H75        29.9151   24.2817   -0.2183 H         1 UNK         0.3017 
     76 H76        31.2620   24.5703   -2.7866 H         1 UNK         0.0873 
     77 H77        32.7479   24.8837   -1.0120 H         1 UNK         0.0745 
     78 H78        32.4139   26.5043   -1.5196 H         1 UNK         0.0745 
     79 H79        33.4573   25.0359    1.5177 H         1 UNK         0.0705 
     80 H80        32.2277   23.8394    1.1748 H         1 UNK         0.0705 
     81 H81        33.0583   26.6497    3.5129 H         1 UNK         0.1334 
     82 H82        30.8902   24.9343    6.7876 H         1 UNK         0.1417 
     83 H83        30.8033   23.0475    2.9363 H         1 UNK         0.1562 
     84 H84        29.7836   22.8309    6.5572 H         1 UNK         0.0748 
     85 H85        30.2965   21.7999    5.2453 H         1 UNK         0.0748 
     86 H86        28.2230   24.7979    6.1589 H         1 UNK         0.0940 
     87 H87        26.6010   24.3769    5.7055 H         1 UNK         0.0940 
     88 H88        28.6893   25.6445    3.8533 H         1 UNK         0.0703 
     89 H89        27.4279   25.1774    2.1040 H         1 UNK         0.3081 
     90 H90        25.7092   23.7321    1.0593 H         1 UNK         0.0719 
     91 H91        23.5238   23.1354    2.0940 H         1 UNK         0.0809 
     92 H92        22.9348   24.7735    1.8474 H         1 UNK         0.0809 
     93 H93        23.3036   23.7448    0.4629 H         1 UNK         0.0809 
     94 H94        24.3249   26.2345    0.4630 H         1 UNK         0.2990 
     95 H95        25.1780   27.5974   -1.1227 H         1 UNK         0.0690 
     96 H96        26.6677   29.5538   -0.4920 H         1 UNK         0.0788 
     97 H97        27.6316   28.4683    0.5088 H         1 UNK         0.0788 
     98 H98        25.9511   28.7777    0.9083 H         1 UNK         0.0788 
     99 H99        28.0685   27.5610   -1.7974 H         1 UNK         0.2993 
    100 H100       27.5251   25.8530   -4.8761 H         1 UNK         0.0949 
    101 H101       28.7484   28.5526   -4.0882 H         1 UNK         0.0767 
    102 H102       29.1786   27.6096   -5.5140 H         1 UNK         0.0767 
    103 H103       27.5585   28.2672   -5.3450 H         1 UNK         0.0767 
    104 H104       29.0359   24.7751   -3.6777 H         1 UNK         0.3013 
    105 H105       26.0331   27.2859    3.1652 H         1 UNK         0.3121 
    106 H106       25.7344   28.9928    5.5006 H         1 UNK         0.0774 
    107 H107       24.0145   30.1001    4.1038 H         1 UNK         0.0815 
    108 H108       24.4934   29.1543    2.7043 H         1 UNK         0.0815 
    109 H109       23.7873   28.3600    4.1101 H         1 UNK         0.0815 
    110 H110       28.1616   29.3621    5.3493 H         1 UNK         0.2987 
    111 H111       29.8405   30.8292    5.3254 H         1 UNK         0.0949 
    112 H112       28.1771   32.3326    6.3558 H         1 UNK         0.0806 
    113 H113       29.2843   33.2526    5.3511 H         1 UNK         0.0806 
    114 H114       27.6643   32.9096    4.7707 H         1 UNK         0.0806 
    115 H115       30.5960   29.6100    3.3904 H         1 UNK         0.3010 
    116 H116       31.2796   31.4938    1.2568 H         1 UNK         0.0829 
    117 H117       29.3298   30.2680    0.2832 H         1 UNK         0.0813 
    118 H118       30.8078   29.7390   -0.5031 H         1 UNK         0.0813 
    119 H119       30.0583   28.7207    0.7139 H         1 UNK         0.0813 
    120 H120       33.1394   30.7423    0.0744 H         1 UNK         0.3038 
    121 H121       35.2545   30.1187   -0.0902 H         1 UNK         0.0769 
    122 H122       34.2588   28.0030   -0.7915 H         1 UNK         0.0811 
    123 H123       35.7135   27.6499    0.1204 H         1 UNK         0.0811 
    124 H124       34.1308   27.4296    0.8627 H         1 UNK         0.0811 
    125 H125       35.0984   27.8707    2.5691 H         1 UNK         0.3204 
    126 H126       37.3325   29.0989    3.9399 H         1 UNK         0.0748 
    127 H127       37.1081   26.6393    3.7934 H         1 UNK         0.0771 
    128 H128       37.0545   27.1342    5.4756 H         1 UNK         0.0771 
    129 H129       35.5680   26.6903    4.6490 H         1 UNK         0.0771 
    130 H130       33.9037   29.5981    4.1614 H         1 UNK         0.2980 
    131 H131       34.2660   31.1233    6.6596 H         1 UNK         0.0545 
    132 H132       31.9985   32.4494    7.0222 H         1 UNK         0.3459 
    133 H133       31.6588   33.3994    5.6004 H         1 UNK         0.3459 
    134 H134       33.2753   29.1483    7.5380 H         1 UNK         0.0616 
    135 H135       32.0101   30.3244    7.4890 H         1 UNK         0.0616 
    136 H136       32.4638   26.7281    7.1998 H         1 UNK         0.0634 
    137 H137       33.5890   27.1997    5.9504 H         1 UNK         0.0634 
@<TRIPOS>BOND
     1    1    2 1    
     2    1   72 1    
     3    1   73 1    
     4    1   74 1    
     5    2    3 2    
     6    2    4 am   BACKBONE|DICT|INTERRES
     7    4    5 1    
     8    4   75 1    
     9    5    6 1    
    10    5   35 1    
    11    5   76 1    
    12    6    7 1    
    13    6   77 1    
    14    6   78 1    
    15    7    8 1    
    16    8    9 1    
    17    8   79 1    
    18    8   80 1    
    19    9   10 ar   
    20    9   14 ar   
    21   10   11 ar   
    22   10   81 1    
    23   11   12 ar   
    24   11   71 1    
    25   12   13 ar   
    26   12   82 1    
    27   13   14 ar   
    28   13   15 1    
    29   14   83 1    
    30   15   16 1    
    31   15   84 1    
    32   15   85 1    
    33   16   17 1    
    34   17   18 1    
    35   17   86 1    
    36   17   87 1    
    37   18   19 1    
    38   18   37 1    
    39   18   88 1    
    40   19   20 am   BACKBONE|DICT|INTERRES
    41   19   89 1    
    42   20   21 2    
    43   20   22 1    
    44   22   23 1    
    45   22   24 1    
    46   22   90 1    
    47   23   91 1    
    48   23   92 1    
    49   23   93 1    
    50   24   25 am   BACKBONE|DICT|INTERRES
    51   24   94 1    
    52   25   26 2    
    53   25   27 1    
    54   27   28 1    
    55   27   29 1    
    56   27   95 1    
    57   28   96 1    
    58   28   97 1    
    59   28   98 1    
    60   29   30 am   BACKBONE|DICT|INTERRES
    61   29   99 1    
    62   30   31 2    
    63   30   32 1    
    64   32   33 1    
    65   32   34 1    
    66   32  100 1    
    67   33  101 1    
    68   33  102 1    
    69   33  103 1    
    70   34   35 am   BACKBONE|DICT|INTERRES
    71   34  104 1    
    72   35   36 2    
    73   37   38 2    
    74   37   39 am   BACKBONE|DICT|INTERRES
    75   39   40 1    
    76   39  105 1    
    77   40   41 1    
    78   40   42 1    
    79   40  106 1    
    80   41  107 1    
    81   41  108 1    
    82   41  109 1    
    83   42   43 2    
    84   42   44 am   BACKBONE|DICT|INTERRES
    85   44   45 1    
    86   44  110 1    
    87   45   46 1    
    88   45   47 1    
    89   45  111 1    
    90   46  112 1    
    91   46  113 1    
    92   46  114 1    
    93   47   48 2    
    94   47   49 am   BACKBONE|DICT|INTERRES
    95   49   50 1    
    96   49  115 1    
    97   50   51 1    
    98   50   52 1    
    99   50  116 1    
   100   51  117 1    
   101   51  118 1    
   102   51  119 1    
   103   52   53 2    
   104   52   54 am   BACKBONE|DICT|INTERRES
   105   54   55 1    
   106   54  120 1    
   107   55   56 1    
   108   55   57 1    
   109   55  121 1    
   110   56  122 1    
   111   56  123 1    
   112   56  124 1    
   113   57   58 2    
   114   57   59 am   BACKBONE|DICT|INTERRES
   115   59   60 1    
   116   59  125 1    
   117   60   61 1    
   118   60   62 1    
   119   60  126 1    
   120   61  127 1    
   121   61  128 1    
   122   61  129 1    
   123   62   63 2    
   124   62   64 am   BACKBONE|DICT|INTERRES
   125   64   65 1    
   126   64  130 1    
   127   65   66 1    
   128   65   69 1    
   129   65  131 1    
   130   66   67 am   BACKBONE|DICT|INTERRES
   131   66   68 2    
   132   67  132 1    
   133   67  133 1    
   134   69   70 1    
   135   69  134 1    
   136   69  135 1    
   137   70   71 1    
   138   71  136 1    
   139   71  137 1    
@<TRIPOS>SUBSTRUCTURE
     1 UNK         1 GROUP             0       ****    0 ROOT    
