@<TRIPOS>MOLECULE
3R136
137   139    1
SMALL
USER_CHARGES


@<TRIPOS>ATOM
      1 CA         31.1245   19.6519   -0.9354 C.3       0 UNK        -0.1979 
      2 C          30.0178   20.6459   -0.6164 C.2       0 UNK         0.4864 
      3 O          29.0169   20.2604   -0.0131 O.2       0 UNK        -0.5359 
      4 N          30.1878   21.9050   -1.0469 N.am      1 UNK        -0.4318 
      5 CA         29.3577   23.1080   -0.8436 C.3       1 UNK         0.0824 
      6 C6         29.4392   23.6894    0.5964 C.3       12 UNK        -0.0944 
      7 S7         28.3669   22.9036    1.8550 S.3       12 UNK        -0.2672 
      8 C8         29.4277   22.9716    3.3348 C.3       12 UNK         0.0333 
      9 C9         29.6889   24.4099    3.7550 C.ar      12 UNK        -0.0807 
     10 C10        30.9335   25.0030    3.5185 C.ar      12 UNK        -0.0894 
     11 C11        31.1483   26.3477    3.8336 C.ar      12 UNK        -0.0804 
     12 C12        30.1118   27.0952    4.3982 C.ar      12 UNK        -0.0824 
     13 C13        28.8642   26.5131    4.6373 C.ar      12 UNK        -0.0762 
     14 C14        28.6641   25.1639    4.3342 C.ar      12 UNK        -0.0782 
     15 C15        27.7090   27.3642    5.1414 C.3       12 UNK         0.0230 
     16 S16        26.5323   27.7457    3.7996 S.3       12 UNK        -0.2608 
     17 C17        27.6091   28.5535    2.5639 C.3       12 UNK        -0.0989 
     18 CA         28.0564   27.5702    1.4450 C.3       5 UNK         0.0716 
     19 N          26.9593   27.0074    0.6517 N.am      5 UNK        -0.4135 
     20 C          26.0457   27.6575   -0.0828 C.2       4 UNK         0.5031 
     21 O          26.0038   28.8839   -0.1988 O.2       4 UNK        -0.5229 
     22 CA         25.0142   26.7989   -0.8354 C.3       4 UNK         0.0329 
     23 CB         25.3101   26.8076   -2.3443 C.3       4 UNK        -0.2001 
     24 N          24.9849   25.4118   -0.3604 N.am      4 UNK        -0.4303 
     25 C          24.2543   24.9781    0.6788 C.2       3 UNK         0.5044 
     26 O          23.4986   25.7101    1.3196 O.2       3 UNK        -0.5152 
     27 CA         24.4027   23.5006    1.1082 C.3       3 UNK         0.0319 
     28 CB         23.0454   22.8539    1.4574 C.3       3 UNK        -0.2001 
     29 N          25.1630   22.6642    0.1698 N.am      3 UNK        -0.4354 
     30 C          24.8426   22.3366   -1.0928 C.2       2 UNK         0.4964 
     31 O          23.7728   22.6314   -1.6273 O.2       2 UNK        -0.5047 
     32 CA         25.9230   21.5881   -1.9038 C.3       2 UNK         0.0288 
     33 CB         25.7919   21.8291   -3.4230 C.3       2 UNK        -0.2113 
     34 N          27.2965   21.8730   -1.4611 N.am      2 UNK        -0.4145 
     35 C          27.9084   23.0638   -1.3834 C.2       1 UNK         0.5006 
     36 O          27.3612   24.1255   -1.6872 O.2       1 UNK        -0.5103 
     37 C          29.1681   28.1644    0.5613 C.2       5 UNK         0.5055 
     38 O          30.2880   27.6516    0.5790 O.2       5 UNK        -0.5220 
     39 N          28.8370   29.2194   -0.1965 N.am      6 UNK        -0.4450 
     40 CA         29.6746   30.0012   -1.1165 C.3       6 UNK         0.0367 
     41 CB         30.1770   29.1388   -2.2916 C.3       6 UNK        -0.1929 
     42 C          30.8314   30.7501   -0.4298 C.2       6 UNK         0.5070 
     43 O          30.8709   31.9791   -0.4755 O.2       6 UNK        -0.5237 
     44 N          31.7355   30.0084    0.2175 N.am      7 UNK        -0.4739 
     45 CA         32.9135   30.5077    0.9299 C.3       7 UNK         0.0276 
     46 CB         34.0761   29.5213    0.7141 C.3       7 UNK        -0.1927 
     47 C          32.6181   30.7393    2.4230 C.2       7 UNK         0.5013 
     48 O          33.4680   30.4549    3.2697 O.2       7 UNK        -0.5193 
     49 N          31.4185   31.2497    2.7373 N.am      8 UNK        -0.4253 
     50 CA         30.9218   31.4793    4.1002 C.3       8 UNK         0.0242 
     51 CB         29.4934   32.0423    4.0363 C.3       8 UNK        -0.2000 
     52 C          31.8234   32.3857    4.9577 C.2       8 UNK         0.4948 
     53 O          31.9193   32.1697    6.1648 O.2       8 UNK        -0.5275 
     54 N          32.5072   33.3435    4.3163 N.am      9 UNK        -0.4246 
     55 CA         33.5078   34.2135    4.9387 C.3       9 UNK         0.0261 
     56 CB         33.8645   35.3481    3.9643 C.3       9 UNK        -0.1959 
     57 C          34.7825   33.4741    5.3920 C.2       9 UNK         0.5033 
     58 O          35.4518   33.9575    6.3064 O.2       9 UNK        -0.5390 
     59 N          35.1029   32.3366    4.7575 N.am      10 UNK        -0.4215 
     60 CA         36.2307   31.4792    5.1221 C.3       10 UNK         0.0240 
     61 CB         36.8104   30.8102    3.8639 C.3       10 UNK        -0.1982 
     62 C          35.8065   30.4266    6.1553 C.2       10 UNK         0.4970 
     63 O          36.5276   30.2250    7.1334 O.2       10 UNK        -0.4916 
     64 N          34.6558   29.7780    5.9252 N.am      11 UNK        -0.4279 
     65 CA         34.0911   28.7642    6.8311 C.3       11 UNK         0.1003 
     66 C          33.5697   29.3311    8.1817 C.2       11 UNK         0.5709 
     67 N          33.0705   30.5590    8.2415 N.am      11 UNK        -0.7358 
     68 O          33.6296   28.6433    9.1983 O.2       11 UNK        -0.4999 
     69 C69        33.0047   27.9055    6.1379 C.3       12 UNK        -0.0954 
     70 S70        33.6979   26.8346    4.8337 S.3       12 UNK        -0.2268 
     71 C71        32.4753   27.0120    3.4999 C.3       12 UNK         0.0203 
     72 H72        31.9481   20.1153   -1.4784 H         1 UNK         0.0888 
     73 H73        31.5228   19.2283   -0.0138 H         1 UNK         0.0888 
     74 H74        30.7330   18.8370   -1.5436 H         1 UNK         0.0888 
     75 H75        31.0279   22.0912   -1.5774 H         1 UNK         0.3017 
     76 H76        29.8460   23.8458   -1.4827 H         1 UNK         0.0873 
     77 H77        30.4752   23.6561    0.9355 H         1 UNK         0.0745 
     78 H78        29.1832   24.7497    0.5728 H         1 UNK         0.0745 
     79 H79        30.3616   22.4427    3.1380 H         1 UNK         0.0705 
     80 H80        28.9367   22.4376    4.1495 H         1 UNK         0.0705 
     81 H81        31.7270   24.4286    3.0605 H         1 UNK         0.1334 
     82 H82        30.2616   28.1432    4.6119 H         1 UNK         0.1417 
     83 H83        27.6922   24.7163    4.4934 H         1 UNK         0.1562 
     84 H84        28.0725   28.2957    5.5785 H         1 UNK         0.0748 
     85 H85        27.1839   26.8351    5.9379 H         1 UNK         0.0748 
     86 H86        28.4740   28.9796    3.0737 H         1 UNK         0.0940 
     87 H87        27.0689   29.4049    2.1479 H         1 UNK         0.0940 
     88 H88        28.5096   26.7069    1.9309 H         1 UNK         0.0703 
     89 H89        26.9090   25.9999    0.6494 H         1 UNK         0.3081 
     90 H90        24.0333   27.2536   -0.6814 H         1 UNK         0.0719 
     91 H91        26.3030   26.4148   -2.5659 H         1 UNK         0.0809 
     92 H92        24.5828   26.2107   -2.8949 H         1 UNK         0.0809 
     93 H93        25.2662   27.8217   -2.7439 H         1 UNK         0.0809 
     94 H94        25.5973   24.7604   -0.8413 H         1 UNK         0.2990 
     95 H95        24.9963   23.5226    2.0235 H         1 UNK         0.0690 
     96 H96        23.1689   21.8187    1.7754 H         1 UNK         0.0788 
     97 H97        22.3587   22.8664    0.6107 H         1 UNK         0.0788 
     98 H98        22.5576   23.3854    2.2755 H         1 UNK         0.0788 
     99 H99        26.0735   22.3729    0.5018 H         1 UNK         0.2993 
    100 H100       25.7554   20.5260   -1.7185 H         1 UNK         0.0949 
    101 H101       25.8873   22.8863   -3.6735 H         1 UNK         0.0767 
    102 H102       26.5545   21.2827   -3.9780 H         1 UNK         0.0767 
    103 H103       24.8223   21.4929   -3.7927 H         1 UNK         0.0767 
    104 H104       27.8166   21.0858   -1.0743 H         1 UNK         0.3013 
    105 H105       27.8588   29.4970   -0.1617 H         1 UNK         0.3121 
    106 H106       29.0160   30.7636   -1.5359 H         1 UNK         0.0774 
    107 H107       30.7370   29.7441   -3.0056 H         1 UNK         0.0815 
    108 H108       30.8362   28.3350   -1.9630 H         1 UNK         0.0815 
    109 H109       29.3455   28.6870   -2.8324 H         1 UNK         0.0815 
    110 H110       31.5414   29.0113    0.2888 H         1 UNK         0.2987 
    111 H111       33.2120   31.4716    0.5121 H         1 UNK         0.0949 
    112 H112       33.8677   28.5481    1.1596 H         1 UNK         0.0806 
    113 H113       34.2742   29.3686   -0.3468 H         1 UNK         0.0806 
    114 H114       34.9977   29.8955    1.1612 H         1 UNK         0.0806 
    115 H115       30.7948   31.4806    1.9765 H         1 UNK         0.3010 
    116 H116       30.8840   30.5081    4.5967 H         1 UNK         0.0829 
    117 H117       29.0870   32.1878    5.0383 H         1 UNK         0.0813 
    118 H118       29.4623   33.0076    3.5292 H         1 UNK         0.0813 
    119 H119       28.8187   31.3668    3.5113 H         1 UNK         0.0813 
    120 H120       32.3599   33.4526    3.3234 H         1 UNK         0.3038 
    121 H121       33.0563   34.6572    5.8288 H         1 UNK         0.0769 
    122 H122       34.5868   36.0329    4.4112 H         1 UNK         0.0811 
    123 H123       32.9856   35.9362    3.6995 H         1 UNK         0.0811 
    124 H124       34.3056   34.9663    3.0427 H         1 UNK         0.0811 
    125 H125       34.4670   31.9632    4.0604 H         1 UNK         0.3204 
    126 H126       37.0218   32.0878    5.5659 H         1 UNK         0.0748 
    127 H127       37.6929   30.2191    4.1122 H         1 UNK         0.0771 
    128 H128       36.0953   30.1378    3.3898 H         1 UNK         0.0771 
    129 H129       37.1144   31.5515    3.1249 H         1 UNK         0.0771 
    130 H130       34.1383   29.9709    5.0742 H         1 UNK         0.2980 
    131 H131       34.9082   28.0898    7.0962 H         1 UNK         0.0545 
    132 H132       32.9170   31.1119    7.4035 H         1 UNK         0.3459 
    133 H133       32.7468   30.9089    9.1284 H         1 UNK         0.3459 
    134 H134       32.5022   27.2513    6.8531 H         1 UNK         0.0616 
    135 H135       32.2360   28.5568    5.7220 H         1 UNK         0.0616 
    136 H136       32.8850   26.5760    2.5877 H         1 UNK         0.0634 
    137 H137       32.3196   28.0668    3.2842 H         1 UNK         0.0634 
@<TRIPOS>BOND
     1    1    2 1    
     2    1   72 1    
     3    1   73 1    
     4    1   74 1    
     5    2    3 2    
     6    2    4 am   BACKBONE|DICT|INTERRES
     7    4    5 1    
     8    4   75 1    
     9    5    6 1    
    10    5   35 1    
    11    5   76 1    
    12    6    7 1    
    13    6   77 1    
    14    6   78 1    
    15    7    8 1    
    16    8    9 1    
    17    8   79 1    
    18    8   80 1    
    19    9   10 ar   
    20    9   14 ar   
    21   10   11 ar   
    22   10   81 1    
    23   11   12 ar   
    24   11   71 1    
    25   12   13 ar   
    26   12   82 1    
    27   13   14 ar   
    28   13   15 1    
    29   14   83 1    
    30   15   16 1    
    31   15   84 1    
    32   15   85 1    
    33   16   17 1    
    34   17   18 1    
    35   17   86 1    
    36   17   87 1    
    37   18   19 1    
    38   18   37 1    
    39   18   88 1    
    40   19   20 am   BACKBONE|DICT|INTERRES
    41   19   89 1    
    42   20   21 2    
    43   20   22 1    
    44   22   23 1    
    45   22   24 1    
    46   22   90 1    
    47   23   91 1    
    48   23   92 1    
    49   23   93 1    
    50   24   25 am   BACKBONE|DICT|INTERRES
    51   24   94 1    
    52   25   26 2    
    53   25   27 1    
    54   27   28 1    
    55   27   29 1    
    56   27   95 1    
    57   28   96 1    
    58   28   97 1    
    59   28   98 1    
    60   29   30 am   BACKBONE|DICT|INTERRES
    61   29   99 1    
    62   30   31 2    
    63   30   32 1    
    64   32   33 1    
    65   32   34 1    
    66   32  100 1    
    67   33  101 1    
    68   33  102 1    
    69   33  103 1    
    70   34   35 am   BACKBONE|DICT|INTERRES
    71   34  104 1    
    72   35   36 2    
    73   37   38 2    
    74   37   39 am   BACKBONE|DICT|INTERRES
    75   39   40 1    
    76   39  105 1    
    77   40   41 1    
    78   40   42 1    
    79   40  106 1    
    80   41  107 1    
    81   41  108 1    
    82   41  109 1    
    83   42   43 2    
    84   42   44 am   BACKBONE|DICT|INTERRES
    85   44   45 1    
    86   44  110 1    
    87   45   46 1    
    88   45   47 1    
    89   45  111 1    
    90   46  112 1    
    91   46  113 1    
    92   46  114 1    
    93   47   48 2    
    94   47   49 am   BACKBONE|DICT|INTERRES
    95   49   50 1    
    96   49  115 1    
    97   50   51 1    
    98   50   52 1    
    99   50  116 1    
   100   51  117 1    
   101   51  118 1    
   102   51  119 1    
   103   52   53 2    
   104   52   54 am   BACKBONE|DICT|INTERRES
   105   54   55 1    
   106   54  120 1    
   107   55   56 1    
   108   55   57 1    
   109   55  121 1    
   110   56  122 1    
   111   56  123 1    
   112   56  124 1    
   113   57   58 2    
   114   57   59 am   BACKBONE|DICT|INTERRES
   115   59   60 1    
   116   59  125 1    
   117   60   61 1    
   118   60   62 1    
   119   60  126 1    
   120   61  127 1    
   121   61  128 1    
   122   61  129 1    
   123   62   63 2    
   124   62   64 am   BACKBONE|DICT|INTERRES
   125   64   65 1    
   126   64  130 1    
   127   65   66 1    
   128   65   69 1    
   129   65  131 1    
   130   66   67 am   BACKBONE|DICT|INTERRES
   131   66   68 2    
   132   67  132 1    
   133   67  133 1    
   134   69   70 1    
   135   69  134 1    
   136   69  135 1    
   137   70   71 1    
   138   71  136 1    
   139   71  137 1    
@<TRIPOS>SUBSTRUCTURE
     1 UNK         1 GROUP             0       ****    0 ROOT    
