@<TRIPOS>MOLECULE
3R136
137   139    1
SMALL
USER_CHARGES


@<TRIPOS>ATOM
      1 CA         31.6329   22.3595   -3.9923 C.3       0 UNK        -0.1979 
      2 C          31.0799   22.8241   -2.6535 C.2       0 UNK         0.4864 
      3 O          30.6516   23.9730   -2.5330 O.2       0 UNK        -0.5359 
      4 N          31.0791   21.9410   -1.6462 N.am      1 UNK        -0.4318 
      5 CA         30.5912   22.1997   -0.2864 C.3       1 UNK         0.0824 
      6 C6         31.2472   21.2491    0.7488 C.3       12 UNK        -0.0944 
      7 S7         33.0487   21.5347    0.8573 S.3       12 UNK        -0.2672 
      8 C8         33.2563   22.1891    2.5512 C.3       12 UNK         0.0333 
      9 C9         32.3513   23.3735    2.8820 C.ar      12 UNK        -0.0807 
     10 C10        31.6711   23.4020    4.1031 C.ar      12 UNK        -0.0894 
     11 C11        30.8325   24.4715    4.4304 C.ar      12 UNK        -0.0804 
     12 C12        30.6609   25.5158    3.5179 C.ar      12 UNK        -0.0824 
     13 C13        31.3401   25.5016    2.2960 C.ar      12 UNK        -0.0762 
     14 C14        32.1974   24.4408    1.9913 C.ar      12 UNK        -0.0782 
     15 C15        31.1597   26.6439    1.3150 C.3       12 UNK         0.0230 
     16 S16        29.6707   26.3832    0.3088 S.3       12 UNK        -0.2608 
     17 C17        29.5113   28.0157   -0.4963 C.3       12 UNK        -0.0989 
     18 CA         28.5021   28.9589    0.2093 C.3       5 UNK         0.0716 
     19 N          27.2119   28.2990    0.4089 N.am      5 UNK        -0.4135 
     20 C          26.0624   28.8657    0.7963 C.2       4 UNK         0.5031 
     21 O          25.9076   30.0798    0.9305 O.2       4 UNK        -0.5229 
     22 CA         24.9113   27.9003    1.1477 C.3       4 UNK         0.0329 
     23 CB         23.9225   27.7958   -0.0240 C.3       4 UNK        -0.2001 
     24 N          25.3650   26.5503    1.5147 N.am      4 UNK        -0.4303 
     25 C          26.1781   26.2476    2.5370 C.2       3 UNK         0.5044 
     26 O          26.5874   27.0844    3.3389 O.2       3 UNK        -0.5152 
     27 CA         26.6989   24.8029    2.6382 C.3       3 UNK         0.0319 
     28 CB         25.7261   23.9032    3.4236 C.3       3 UNK        -0.2001 
     29 N          27.0800   24.2172    1.3432 N.am      3 UNK        -0.4354 
     30 C          26.2958   23.8498    0.3178 C.2       2 UNK         0.4964 
     31 O          25.0681   23.9435    0.3341 O.2       2 UNK        -0.5047 
     32 CA         26.9817   23.3612   -0.9718 C.3       2 UNK         0.0288 
     33 CB         26.7128   24.3473   -2.1222 C.3       2 UNK        -0.2113 
     34 N          28.4303   23.1816   -0.8525 N.am      2 UNK        -0.4145 
     35 C          29.0499   22.1616   -0.2460 C.2       1 UNK         0.5006 
     36 O          28.4585   21.2278    0.2990 O.2       1 UNK        -0.5103 
     37 C          29.1046   29.5742    1.4947 C.2       5 UNK         0.5055 
     38 O          30.0567   30.3468    1.3767 O.2       5 UNK        -0.5220 
     39 N          28.5580   29.2667    2.6855 N.am      6 UNK        -0.4450 
     40 CA         28.9801   29.8140    3.9839 C.3       6 UNK         0.0367 
     41 CB         28.1498   29.1771    5.1087 C.3       6 UNK        -0.1929 
     42 C          28.9223   31.3517    4.0919 C.2       6 UNK         0.5070 
     43 O          29.5885   31.9284    4.9511 O.2       6 UNK        -0.5237 
     44 N          28.1529   31.9997    3.2087 N.am      7 UNK        -0.4739 
     45 CA         28.1399   33.4518    3.0345 C.3       7 UNK         0.0276 
     46 CB         26.9127   33.8338    2.1903 C.3       7 UNK        -0.1927 
     47 C          29.4283   34.0124    2.3949 C.2       7 UNK         0.5013 
     48 O          29.6426   35.2228    2.4796 O.2       7 UNK        -0.5193 
     49 N          30.2381   33.1575    1.7502 N.am      8 UNK        -0.4253 
     50 CA         31.4131   33.5498    0.9714 C.3       8 UNK         0.0242 
     51 CB         31.1309   33.2889   -0.5184 C.3       8 UNK        -0.2000 
     52 C          32.7081   32.8371    1.3931 C.2       8 UNK         0.4948 
     53 O          33.7629   33.4707    1.3225 O.2       8 UNK        -0.5275 
     54 N          32.6485   31.5533    1.7780 N.am      9 UNK        -0.4246 
     55 CA         33.8377   30.7185    1.9830 C.3       9 UNK         0.0261 
     56 CB         34.2047   30.0472    0.6448 C.3       9 UNK        -0.1959 
     57 C          33.6253   29.6580    3.0702 C.2       9 UNK         0.5033 
     58 O          32.4847   29.3780    3.4425 O.2       9 UNK        -0.5390 
     59 N          34.7431   29.0647    3.5214 N.am      10 UNK        -0.4215 
     60 CA         34.8635   27.9318    4.4503 C.3       10 UNK         0.0240 
     61 CB         34.4539   26.6219    3.7482 C.3       10 UNK        -0.1982 
     62 C          34.1309   28.1698    5.7823 C.2       10 UNK         0.4970 
     63 O          34.6843   28.8437    6.6525 O.2       10 UNK        -0.4916 
     64 N          32.9102   27.6332    5.9105 N.am      11 UNK        -0.4279 
     65 CA         31.9911   27.8842    7.0318 C.3       11 UNK         0.1003 
     66 C          31.5341   29.3666    7.1721 C.2       11 UNK         0.5709 
     67 N          31.6747   30.1992    6.1496 N.am      11 UNK        -0.7358 
     68 O          31.0370   29.7586    8.2251 O.2       11 UNK        -0.4999 
     69 C69        30.7489   26.9574    6.9711 C.3       12 UNK        -0.0954 
     70 S70        31.1515   25.1833    7.0861 S.3       12 UNK        -0.2268 
     71 C71        30.1096   24.4802    5.7678 C.3       12 UNK         0.0203 
     72 H72        31.9798   21.3270   -3.9542 H         1 UNK         0.0888 
     73 H73        30.8637   22.4315   -4.7606 H         1 UNK         0.0888 
     74 H74        32.4718   22.9884   -4.2891 H         1 UNK         0.0888 
     75 H75        31.4346   21.0093   -1.8064 H         1 UNK         0.3017 
     76 H76        30.8706   23.2195   -0.0184 H         1 UNK         0.0873 
     77 H77        30.8013   21.3828    1.7362 H         1 UNK         0.0745 
     78 H78        31.0749   20.2054    0.4798 H         1 UNK         0.0745 
     79 H79        33.0858   21.3707    3.2524 H         1 UNK         0.0705 
     80 H80        34.2946   22.4957    2.6835 H         1 UNK         0.0705 
     81 H81        31.7958   22.5908    4.8075 H         1 UNK         0.1334 
     82 H82        30.0021   26.3405    3.7545 H         1 UNK         0.1417 
     83 H83        32.7325   24.4363    1.0513 H         1 UNK         0.1562 
     84 H84        32.0293   26.7350    0.6622 H         1 UNK         0.0748 
     85 H85        31.0893   27.5829    1.8643 H         1 UNK         0.0748 
     86 H86        29.1775   27.8385   -1.5199 H         1 UNK         0.0940 
     87 H87        30.4931   28.4843   -0.5950 H         1 UNK         0.0940 
     88 H88        28.3212   29.8021   -0.4605 H         1 UNK         0.0703 
     89 H89        27.2371   27.2926    0.3391 H         1 UNK         0.3081 
     90 H90        24.3870   28.3191    2.0090 H         1 UNK         0.0719 
     91 H91        23.5480   28.7802   -0.3087 H         1 UNK         0.0809 
     92 H92        23.0581   27.1860    0.2397 H         1 UNK         0.0809 
     93 H93        24.3875   27.3547   -0.9067 H         1 UNK         0.0809 
     94 H94        25.0635   25.7796    0.9246 H         1 UNK         0.2990 
     95 H95        27.6257   24.8510    3.2125 H         1 UNK         0.0690 
     96 H96        26.1219   22.8934    3.5322 H         1 UNK         0.0788 
     97 H97        24.7503   23.8319    2.9427 H         1 UNK         0.0788 
     98 H98        25.5617   24.2969    4.4275 H         1 UNK         0.0788 
     99 H99        28.0766   24.1483    1.1910 H         1 UNK         0.2993 
    100 H100       26.5345   22.3984   -1.2284 H         1 UNK         0.0949 
    101 H101       25.6425   24.4830   -2.2848 H         1 UNK         0.0767 
    102 H102       27.1403   25.3302   -1.9184 H         1 UNK         0.0767 
    103 H103       27.1365   23.9866   -3.0598 H         1 UNK         0.0767 
    104 H104       29.0179   23.8596   -1.3303 H         1 UNK         0.3013 
    105 H105       27.7938   28.5993    2.7183 H         1 UNK         0.3121 
    106 H106       30.0191   29.5195    4.1230 H         1 UNK         0.0774 
    107 H107       28.4676   29.5432    6.0861 H         1 UNK         0.0815 
    108 H108       27.0885   29.4046    5.0023 H         1 UNK         0.0815 
    109 H109       28.2591   28.0936    5.1207 H         1 UNK         0.0815 
    110 H110       27.6156   31.4534    2.5489 H         1 UNK         0.2987 
    111 H111       28.0387   33.9150    4.0186 H         1 UNK         0.0949 
    112 H112       25.9868   33.5111    2.6667 H         1 UNK         0.0806 
    113 H113       26.8481   34.9150    2.0597 H         1 UNK         0.0806 
    114 H114       26.9522   33.3865    1.1961 H         1 UNK         0.0806 
    115 H115       30.0067   32.1671    1.7418 H         1 UNK         0.3010 
    116 H116       31.6002   34.6193    1.0891 H         1 UNK         0.0829 
    117 H117       30.2750   33.8675   -0.8661 H         1 UNK         0.0813 
    118 H118       31.9852   33.5719   -1.1351 H         1 UNK         0.0813 
    119 H119       30.9234   32.2351   -0.7101 H         1 UNK         0.0813 
    120 H120       31.7553   31.0676    1.8354 H         1 UNK         0.3038 
    121 H121       34.6718   31.3430    2.3106 H         1 UNK         0.0769 
    122 H122       33.3936   29.4143    0.2818 H         1 UNK         0.0811 
    123 H123       35.0915   29.4195    0.7394 H         1 UNK         0.0811 
    124 H124       34.4190   30.7884   -0.1254 H         1 UNK         0.0811 
    125 H125       35.6242   29.4128    3.1694 H         1 UNK         0.3204 
    126 H126       35.9223   27.8463    4.7003 H         1 UNK         0.0748 
    127 H127       35.1226   26.3948    2.9180 H         1 UNK         0.0771 
    128 H128       34.4858   25.7710    4.4305 H         1 UNK         0.0771 
    129 H129       33.4469   26.6890    3.3456 H         1 UNK         0.0771 
    130 H130       32.5309   27.1119    5.1345 H         1 UNK         0.2980 
    131 H131       32.5375   27.6505    7.9473 H         1 UNK         0.0545 
    132 H132       32.0381   29.8652    5.2624 H         1 UNK         0.3459 
    133 H133       31.3062   31.1364    6.2149 H         1 UNK         0.3459 
    134 H134       30.0612   27.1787    7.7896 H         1 UNK         0.0616 
    135 H135       30.1957   27.1469    6.0516 H         1 UNK         0.0616 
    136 H136       29.1669   25.0255    5.6976 H         1 UNK         0.0634 
    137 H137       29.8443   23.4587    6.0442 H         1 UNK         0.0634 
@<TRIPOS>BOND
     1    1    2 1    
     2    1   72 1    
     3    1   73 1    
     4    1   74 1    
     5    2    3 2    
     6    2    4 am   BACKBONE|DICT|INTERRES
     7    4    5 1    
     8    4   75 1    
     9    5    6 1    
    10    5   35 1    
    11    5   76 1    
    12    6    7 1    
    13    6   77 1    
    14    6   78 1    
    15    7    8 1    
    16    8    9 1    
    17    8   79 1    
    18    8   80 1    
    19    9   10 ar   
    20    9   14 ar   
    21   10   11 ar   
    22   10   81 1    
    23   11   12 ar   
    24   11   71 1    
    25   12   13 ar   
    26   12   82 1    
    27   13   14 ar   
    28   13   15 1    
    29   14   83 1    
    30   15   16 1    
    31   15   84 1    
    32   15   85 1    
    33   16   17 1    
    34   17   18 1    
    35   17   86 1    
    36   17   87 1    
    37   18   19 1    
    38   18   37 1    
    39   18   88 1    
    40   19   20 am   BACKBONE|DICT|INTERRES
    41   19   89 1    
    42   20   21 2    
    43   20   22 1    
    44   22   23 1    
    45   22   24 1    
    46   22   90 1    
    47   23   91 1    
    48   23   92 1    
    49   23   93 1    
    50   24   25 am   BACKBONE|DICT|INTERRES
    51   24   94 1    
    52   25   26 2    
    53   25   27 1    
    54   27   28 1    
    55   27   29 1    
    56   27   95 1    
    57   28   96 1    
    58   28   97 1    
    59   28   98 1    
    60   29   30 am   BACKBONE|DICT|INTERRES
    61   29   99 1    
    62   30   31 2    
    63   30   32 1    
    64   32   33 1    
    65   32   34 1    
    66   32  100 1    
    67   33  101 1    
    68   33  102 1    
    69   33  103 1    
    70   34   35 am   BACKBONE|DICT|INTERRES
    71   34  104 1    
    72   35   36 2    
    73   37   38 2    
    74   37   39 am   BACKBONE|DICT|INTERRES
    75   39   40 1    
    76   39  105 1    
    77   40   41 1    
    78   40   42 1    
    79   40  106 1    
    80   41  107 1    
    81   41  108 1    
    82   41  109 1    
    83   42   43 2    
    84   42   44 am   BACKBONE|DICT|INTERRES
    85   44   45 1    
    86   44  110 1    
    87   45   46 1    
    88   45   47 1    
    89   45  111 1    
    90   46  112 1    
    91   46  113 1    
    92   46  114 1    
    93   47   48 2    
    94   47   49 am   BACKBONE|DICT|INTERRES
    95   49   50 1    
    96   49  115 1    
    97   50   51 1    
    98   50   52 1    
    99   50  116 1    
   100   51  117 1    
   101   51  118 1    
   102   51  119 1    
   103   52   53 2    
   104   52   54 am   BACKBONE|DICT|INTERRES
   105   54   55 1    
   106   54  120 1    
   107   55   56 1    
   108   55   57 1    
   109   55  121 1    
   110   56  122 1    
   111   56  123 1    
   112   56  124 1    
   113   57   58 2    
   114   57   59 am   BACKBONE|DICT|INTERRES
   115   59   60 1    
   116   59  125 1    
   117   60   61 1    
   118   60   62 1    
   119   60  126 1    
   120   61  127 1    
   121   61  128 1    
   122   61  129 1    
   123   62   63 2    
   124   62   64 am   BACKBONE|DICT|INTERRES
   125   64   65 1    
   126   64  130 1    
   127   65   66 1    
   128   65   69 1    
   129   65  131 1    
   130   66   67 am   BACKBONE|DICT|INTERRES
   131   66   68 2    
   132   67  132 1    
   133   67  133 1    
   134   69   70 1    
   135   69  134 1    
   136   69  135 1    
   137   70   71 1    
   138   71  136 1    
   139   71  137 1    
@<TRIPOS>SUBSTRUCTURE
     1 UNK         1 GROUP             0       ****    0 ROOT    
