@<TRIPOS>MOLECULE
3R136
137   139    1
SMALL
USER_CHARGES


@<TRIPOS>ATOM
      1 CA         34.4559   25.8973   -0.1068 C.3       0 UNK        -0.1979 
      2 C          33.0472   25.6123    0.3888 C.2       0 UNK         0.4864 
      3 O          32.3708   26.5172    0.8796 O.2       0 UNK        -0.5359 
      4 N          32.5949   24.3596    0.2507 N.am      1 UNK        -0.4318 
      5 CA         31.2478   23.8929    0.6015 C.3       1 UNK         0.0824 
      6 C6         31.2008   22.3525    0.7819 C.3       12 UNK        -0.0944 
      7 S7         32.3947   21.7526    2.0263 S.3       12 UNK        -0.2672 
      8 C8         31.3061   21.0997    3.3338 C.3       12 UNK         0.0333 
      9 C9         30.5645   22.1919    4.0953 C.ar      12 UNK        -0.0807 
     10 C10        31.2744   23.2040    4.7501 C.ar      12 UNK        -0.0894 
     11 C11        30.6001   24.1888    5.4775 C.ar      12 UNK        -0.0804 
     12 C12        29.2065   24.1442    5.5687 C.ar      12 UNK        -0.0824 
     13 C13        28.4857   23.1286    4.9351 C.ar      12 UNK        -0.0762 
     14 C14        29.1689   22.1615    4.1903 C.ar      12 UNK        -0.0782 
     15 C15        26.9744   23.0458    5.0955 C.3       12 UNK         0.0230 
     16 S16        26.0883   23.7039    3.6513 S.3       12 UNK        -0.2608 
     17 C17        26.2053   25.5101    3.9101 C.3       12 UNK        -0.0989 
     18 CA         26.3548   26.2785    2.5691 C.3       5 UNK         0.0716 
     19 N          25.2970   25.9706    1.5999 N.am      5 UNK        -0.4135 
     20 C          23.9855   26.2373    1.7091 C.2       4 UNK         0.5031 
     21 O          23.4730   26.7355    2.7127 O.2       4 UNK        -0.5229 
     22 CA         23.0947   25.9157    0.4859 C.3       4 UNK         0.0329 
     23 CB         21.9574   26.9451    0.3104 C.3       4 UNK        -0.2001 
     24 N          23.8366   25.7496   -0.7742 N.am      4 UNK        -0.4303 
     25 C          24.6343   26.6522   -1.3633 C.2       3 UNK         0.5044 
     26 O          24.8172   27.7976   -0.9440 O.2       3 UNK        -0.5152 
     27 CA         25.4338   26.1566   -2.5801 C.3       3 UNK         0.0319 
     28 CB         24.9586   26.8555   -3.8638 C.3       3 UNK        -0.2001 
     29 N          26.8720   26.3832   -2.4041 N.am      3 UNK        -0.4354 
     30 C          27.6094   25.9293   -1.3794 C.2       2 UNK         0.4964 
     31 O          27.1659   25.2065   -0.4832 O.2       2 UNK        -0.5047 
     32 CA         29.0669   26.4223   -1.3351 C.3       2 UNK         0.0288 
     33 CB         29.1128   27.9079   -0.9403 C.3       2 UNK        -0.2113 
     34 N          29.9201   25.6848   -0.4009 N.am      2 UNK        -0.4145 
     35 C          30.2395   24.3859   -0.4613 C.2       1 UNK         0.5006 
     36 O          29.8363   23.6186   -1.3390 O.2       1 UNK        -0.5103 
     37 C          26.5637   27.8012    2.7578 C.2       5 UNK         0.5055 
     38 O          27.1447   28.2149    3.7632 O.2       5 UNK        -0.5220 
     39 N          26.1188   28.6200    1.7902 N.am      6 UNK        -0.4450 
     40 CA         26.2030   30.0823    1.8129 C.3       6 UNK         0.0367 
     41 CB         25.0308   30.6589    0.9974 C.3       6 UNK        -0.1929 
     42 C          27.5739   30.5715    1.3103 C.2       6 UNK         0.5070 
     43 O          27.6503   31.2968    0.3168 O.2       6 UNK        -0.5237 
     44 N          28.6412   30.1335    1.9873 N.am      7 UNK        -0.4739 
     45 CA         30.0267   30.4890    1.6814 C.3       7 UNK         0.0276 
     46 CB         30.9607   29.4902    2.3838 C.3       7 UNK        -0.1927 
     47 C          30.3493   31.9355    2.0974 C.2       7 UNK         0.5013 
     48 O          29.8168   32.4238    3.0971 O.2       7 UNK        -0.5193 
     49 N          31.2418   32.5825    1.3361 N.am      8 UNK        -0.4253 
     50 CA         31.7117   33.9550    1.5715 C.3       8 UNK         0.0242 
     51 CB         32.1480   34.5623    0.2266 C.3       8 UNK        -0.2000 
     52 C          32.8543   34.0495    2.6041 C.2       8 UNK         0.4948 
     53 O          33.2779   35.1577    2.9362 O.2       8 UNK        -0.5275 
     54 N          33.3417   32.9008    3.0794 N.am      9 UNK        -0.4246 
     55 CA         34.3886   32.7304    4.0810 C.3       9 UNK         0.0261 
     56 CB         35.7612   32.6756    3.3823 C.3       9 UNK        -0.1959 
     57 C          34.0778   31.4407    4.8544 C.2       9 UNK         0.5033 
     58 O          33.0576   30.8017    4.5812 O.2       9 UNK        -0.5390 
     59 N          34.9614   31.0474    5.7812 N.am      10 UNK        -0.4215 
     60 CA         34.8462   29.8502    6.6295 C.3       10 UNK         0.0240 
     61 CB         35.8010   30.0015    7.8296 C.3       10 UNK        -0.1982 
     62 C          35.0434   28.5089    5.8803 C.2       10 UNK         0.4970 
     63 O          35.7570   27.6311    6.3688 O.2       10 UNK        -0.4916 
     64 N          34.3991   28.3782    4.7154 N.am      11 UNK        -0.4279 
     65 CA         34.3268   27.1899    3.8488 C.3       11 UNK         0.1003 
     66 C          35.6979   26.6992    3.2921 C.2       11 UNK         0.5709 
     67 N          36.6990   27.5632    3.1708 N.am      11 UNK        -0.7358 
     68 O          35.8567   25.5332    2.9388 O.2       11 UNK        -0.4999 
     69 C69        33.4732   26.0461    4.4660 C.3       12 UNK        -0.0954 
     70 S70        31.8303   26.6169    5.0238 S.3       12 UNK        -0.2268 
     71 C71        31.3712   25.2936    6.1817 C.3       12 UNK         0.0203 
     72 H72        35.1305   25.0759    0.1344 H         1 UNK         0.0888 
     73 H73        34.4540   26.0413   -1.1867 H         1 UNK         0.0888 
     74 H74        34.8494   26.8024    0.3547 H         1 UNK         0.0888 
     75 H75        33.1971   23.6604   -0.1598 H         1 UNK         0.3017 
     76 H76        30.9657   24.3418    1.5575 H         1 UNK         0.0873 
     77 H77        31.4250   21.8458   -0.1587 H         1 UNK         0.0745 
     78 H78        30.1943   22.0370    1.0633 H         1 UNK         0.0745 
     79 H79        31.9151   20.5369    4.0424 H         1 UNK         0.0705 
     80 H80        30.6108   20.3830    2.8937 H         1 UNK         0.0705 
     81 H81        32.3538   23.2255    4.6899 H         1 UNK         0.1334 
     82 H82        28.6841   24.8943    6.1466 H         1 UNK         0.1417 
     83 H83        28.6108   21.3730    3.7035 H         1 UNK         0.1562 
     84 H84        26.6480   23.5706    5.9950 H         1 UNK         0.0748 
     85 H85        26.6849   22.0032    5.2353 H         1 UNK         0.0748 
     86 H86        27.0568   25.7213    4.5576 H         1 UNK         0.0940 
     87 H87        25.3211   25.8446    4.4549 H         1 UNK         0.0940 
     88 H88        27.2801   25.9300    2.1080 H         1 UNK         0.0703 
     89 H89        25.6404   25.5599    0.7370 H         1 UNK         0.3081 
     90 H90        22.6362   24.9487    0.6979 H         1 UNK         0.0719 
     91 H91        21.3304   26.7021   -0.5473 H         1 UNK         0.0809 
     92 H92        22.3440   27.9549    0.1685 H         1 UNK         0.0809 
     93 H93        21.3084   26.9671    1.1867 H         1 UNK         0.0809 
     94 H94        23.7827   24.8275   -1.1858 H         1 UNK         0.2990 
     95 H95        25.2822   25.0814   -2.6961 H         1 UNK         0.0690 
     96 H96        25.4849   26.4786   -4.7410 H         1 UNK         0.0788 
     97 H97        25.1128   27.9345   -3.8160 H         1 UNK         0.0788 
     98 H98        23.8936   26.6862   -4.0285 H         1 UNK         0.0788 
     99 H99        27.3080   27.0003   -3.0738 H         1 UNK         0.2993 
    100 H100       29.4926   26.3037   -2.3336 H         1 UNK         0.0949 
    101 H101       28.7119   28.0594    0.0618 H         1 UNK         0.0767 
    102 H102       30.1335   28.2913   -0.9538 H         1 UNK         0.0767 
    103 H103       28.5277   28.5271   -1.6215 H         1 UNK         0.0767 
    104 H104       30.4024   26.2358    0.3008 H         1 UNK         0.3013 
    105 H105       25.6875   28.2150    0.9655 H         1 UNK         0.3121 
    106 H106       26.0914   30.4320    2.8416 H         1 UNK         0.0774 
    107 H107       25.0273   31.7489    1.0357 H         1 UNK         0.0815 
    108 H108       25.0882   30.3693   -0.0526 H         1 UNK         0.0815 
    109 H109       24.0711   30.3173    1.3858 H         1 UNK         0.0815 
    110 H110       28.4791   29.5553    2.8043 H         1 UNK         0.2987 
    111 H111       30.1697   30.3961    0.6025 H         1 UNK         0.0949 
    112 H112       30.7515   28.4648    2.0777 H         1 UNK         0.0806 
    113 H113       32.0056   29.6881    2.1426 H         1 UNK         0.0806 
    114 H114       30.8618   29.5393    3.4692 H         1 UNK         0.0806 
    115 H115       31.6387   32.1059    0.5383 H         1 UNK         0.3010 
    116 H116       30.8813   34.5501    1.9581 H         1 UNK         0.0829 
    117 H117       31.3323   34.5531   -0.4968 H         1 UNK         0.0813 
    118 H118       32.4572   35.6016    0.3473 H         1 UNK         0.0813 
    119 H119       32.9898   34.0212   -0.2074 H         1 UNK         0.0813 
    120 H120       32.8627   32.0402    2.8469 H         1 UNK         0.3038 
    121 H121       34.3618   33.5629    4.7871 H         1 UNK         0.0769 
    122 H122       35.8409   31.8135    2.7187 H         1 UNK         0.0811 
    123 H123       35.9352   33.5708    2.7848 H         1 UNK         0.0811 
    124 H124       36.5767   32.6130    4.1033 H         1 UNK         0.0811 
    125 H125       35.7869   31.6115    5.9238 H         1 UNK         0.3204 
    126 H126       33.8288   29.8254    7.0260 H         1 UNK         0.0748 
    127 H127       35.6861   29.1739    8.5312 H         1 UNK         0.0771 
    128 H128       36.8449   30.0196    7.5138 H         1 UNK         0.0771 
    129 H129       35.6008   30.9184    8.3844 H         1 UNK         0.0771 
    130 H130       33.8128   29.1618    4.4372 H         1 UNK         0.2980 
    131 H131       33.7904   27.5315    2.9636 H         1 UNK         0.0545 
    132 H132       37.5827   27.2453    2.8059 H         1 UNK         0.3459 
    133 H133       36.5849   28.5212    3.4587 H         1 UNK         0.3459 
    134 H134       33.3160   25.2529    3.7330 H         1 UNK         0.0616 
    135 H135       34.0049   25.5965    5.3058 H         1 UNK         0.0616 
    136 H136       30.7629   25.7285    6.9762 H         1 UNK         0.0634 
    137 H137       32.2565   24.8858    6.6712 H         1 UNK         0.0634 
@<TRIPOS>BOND
     1    1    2 1    
     2    1   72 1    
     3    1   73 1    
     4    1   74 1    
     5    2    3 2    
     6    2    4 am   BACKBONE|DICT|INTERRES
     7    4    5 1    
     8    4   75 1    
     9    5    6 1    
    10    5   35 1    
    11    5   76 1    
    12    6    7 1    
    13    6   77 1    
    14    6   78 1    
    15    7    8 1    
    16    8    9 1    
    17    8   79 1    
    18    8   80 1    
    19    9   10 ar   
    20    9   14 ar   
    21   10   11 ar   
    22   10   81 1    
    23   11   12 ar   
    24   11   71 1    
    25   12   13 ar   
    26   12   82 1    
    27   13   14 ar   
    28   13   15 1    
    29   14   83 1    
    30   15   16 1    
    31   15   84 1    
    32   15   85 1    
    33   16   17 1    
    34   17   18 1    
    35   17   86 1    
    36   17   87 1    
    37   18   19 1    
    38   18   37 1    
    39   18   88 1    
    40   19   20 am   BACKBONE|DICT|INTERRES
    41   19   89 1    
    42   20   21 2    
    43   20   22 1    
    44   22   23 1    
    45   22   24 1    
    46   22   90 1    
    47   23   91 1    
    48   23   92 1    
    49   23   93 1    
    50   24   25 am   BACKBONE|DICT|INTERRES
    51   24   94 1    
    52   25   26 2    
    53   25   27 1    
    54   27   28 1    
    55   27   29 1    
    56   27   95 1    
    57   28   96 1    
    58   28   97 1    
    59   28   98 1    
    60   29   30 am   BACKBONE|DICT|INTERRES
    61   29   99 1    
    62   30   31 2    
    63   30   32 1    
    64   32   33 1    
    65   32   34 1    
    66   32  100 1    
    67   33  101 1    
    68   33  102 1    
    69   33  103 1    
    70   34   35 am   BACKBONE|DICT|INTERRES
    71   34  104 1    
    72   35   36 2    
    73   37   38 2    
    74   37   39 am   BACKBONE|DICT|INTERRES
    75   39   40 1    
    76   39  105 1    
    77   40   41 1    
    78   40   42 1    
    79   40  106 1    
    80   41  107 1    
    81   41  108 1    
    82   41  109 1    
    83   42   43 2    
    84   42   44 am   BACKBONE|DICT|INTERRES
    85   44   45 1    
    86   44  110 1    
    87   45   46 1    
    88   45   47 1    
    89   45  111 1    
    90   46  112 1    
    91   46  113 1    
    92   46  114 1    
    93   47   48 2    
    94   47   49 am   BACKBONE|DICT|INTERRES
    95   49   50 1    
    96   49  115 1    
    97   50   51 1    
    98   50   52 1    
    99   50  116 1    
   100   51  117 1    
   101   51  118 1    
   102   51  119 1    
   103   52   53 2    
   104   52   54 am   BACKBONE|DICT|INTERRES
   105   54   55 1    
   106   54  120 1    
   107   55   56 1    
   108   55   57 1    
   109   55  121 1    
   110   56  122 1    
   111   56  123 1    
   112   56  124 1    
   113   57   58 2    
   114   57   59 am   BACKBONE|DICT|INTERRES
   115   59   60 1    
   116   59  125 1    
   117   60   61 1    
   118   60   62 1    
   119   60  126 1    
   120   61  127 1    
   121   61  128 1    
   122   61  129 1    
   123   62   63 2    
   124   62   64 am   BACKBONE|DICT|INTERRES
   125   64   65 1    
   126   64  130 1    
   127   65   66 1    
   128   65   69 1    
   129   65  131 1    
   130   66   67 am   BACKBONE|DICT|INTERRES
   131   66   68 2    
   132   67  132 1    
   133   67  133 1    
   134   69   70 1    
   135   69  134 1    
   136   69  135 1    
   137   70   71 1    
   138   71  136 1    
   139   71  137 1    
@<TRIPOS>SUBSTRUCTURE
     1 UNK         1 GROUP             0       ****    0 ROOT    
