@<TRIPOS>MOLECULE
3R136
137   139    1
SMALL
USER_CHARGES


@<TRIPOS>ATOM
      1 CA         30.9496   20.0919   -1.0876 C.3       0 UNK        -0.1979 
      2 C          30.8125   21.3245   -1.9695 C.2       0 UNK         0.4864 
      3 O          30.8693   21.2101   -3.1952 O.2       0 UNK        -0.5359 
      4 N          30.6413   22.5008   -1.3546 N.am      1 UNK        -0.4318 
      5 CA         30.4056   23.7784   -2.0321 C.3       1 UNK         0.0824 
      6 C6         30.8105   24.9876   -1.1444 C.3       12 UNK        -0.0944 
      7 S7         30.1157   24.9783    0.5485 S.3       12 UNK        -0.2672 
      8 C8         31.5863   24.5175    1.5189 C.3       12 UNK         0.0333 
      9 C9         31.3355   24.5292    3.0224 C.ar      12 UNK        -0.0807 
     10 C10        32.1647   25.2819    3.8595 C.ar      12 UNK        -0.0894 
     11 C11        32.0040   25.2434    5.2469 C.ar      12 UNK        -0.0804 
     12 C12        30.9788   24.4708    5.7988 C.ar      12 UNK        -0.0824 
     13 C13        30.1272   23.7289    4.9738 C.ar      12 UNK        -0.0762 
     14 C14        30.3193   23.7507    3.5878 C.ar      12 UNK        -0.0782 
     15 C15        29.0128   22.8885    5.5825 C.3       12 UNK         0.0230 
     16 S16        27.3590   23.5573    5.2110 S.3       12 UNK        -0.2608 
     17 C17        27.4267   25.2093    5.9868 C.3       12 UNK        -0.0989 
     18 CA         27.6358   26.3325    4.9417 C.3       5 UNK         0.0716 
     19 N          26.5721   26.3573    3.9335 N.am      5 UNK        -0.4135 
     20 C          26.5317   27.1811    2.8797 C.2       4 UNK         0.5031 
     21 O          27.4099   28.0113    2.6231 O.2       4 UNK        -0.5229 
     22 CA         25.2729   27.0884    1.9978 C.3       4 UNK         0.0329 
     23 CB         24.1172   27.8957    2.6129 C.3       4 UNK        -0.2001 
     24 N          25.5312   27.5757    0.6416 N.am      4 UNK        -0.4303 
     25 C          26.2895   26.9246   -0.2481 C.2       3 UNK         0.5044 
     26 O          26.7286   25.7878   -0.0630 O.2       3 UNK        -0.5152 
     27 CA         26.6228   27.6889   -1.5425 C.3       3 UNK         0.0319 
     28 CB         27.5897   28.8522   -1.2567 C.3       3 UNK        -0.2001 
     29 N          27.2382   26.8094   -2.5364 N.am      3 UNK        -0.4354 
     30 C          26.5778   25.9359   -3.3081 C.2       2 UNK         0.4964 
     31 O          25.3495   25.8603   -3.3651 O.2       2 UNK        -0.5047 
     32 CA         27.4332   24.9882   -4.1692 C.3       2 UNK         0.0288 
     33 CB         27.6216   25.5669   -5.5816 C.3       2 UNK        -0.2113 
     34 N          28.7487   24.7098   -3.5807 N.am      2 UNK        -0.4145 
     35 C          28.9522   23.8808   -2.5456 C.2       1 UNK         0.5006 
     36 O          28.0552   23.2213   -2.0122 O.2       1 UNK        -0.5103 
     37 C          27.7585   27.7094    5.6238 C.2       5 UNK         0.5055 
     38 O          26.7615   28.2217    6.1368 O.2       5 UNK        -0.5220 
     39 N          28.9646   28.2867    5.5641 N.am      6 UNK        -0.4450 
     40 CA         29.3499   29.6294    6.0160 C.3       6 UNK         0.0367 
     41 CB         29.0541   29.8431    7.5150 C.3       6 UNK        -0.1929 
     42 C          28.8374   30.7956    5.1456 C.2       6 UNK         0.5070 
     43 O          29.2203   31.9358    5.4117 O.2       6 UNK        -0.5237 
     44 N          28.0371   30.5204    4.1044 N.am      7 UNK        -0.4739 
     45 CA         27.7188   31.4845    3.0429 C.3       7 UNK         0.0276 
     46 CB         26.3083   31.2126    2.4970 C.3       7 UNK        -0.1927 
     47 C          28.7599   31.4240    1.9100 C.2       7 UNK         0.5013 
     48 O          28.9040   32.3961    1.1670 O.2       7 UNK        -0.5193 
     49 N          29.4646   30.2885    1.8055 N.am      8 UNK        -0.4253 
     50 CA         30.6170   30.0583    0.9362 C.3       8 UNK         0.0242 
     51 CB         30.9673   28.5604    1.0012 C.3       8 UNK        -0.2000 
     52 C          31.8386   30.9071    1.3389 C.2       8 UNK         0.4948 
     53 O          31.8841   31.4600    2.4406 O.2       8 UNK        -0.5275 
     54 N          32.8372   30.9559    0.4448 N.am      9 UNK        -0.4246 
     55 CA         34.1252   31.6240    0.6733 C.3       9 UNK         0.0261 
     56 CB         34.9314   31.6465   -0.6355 C.3       9 UNK        -0.1959 
     57 C          34.9514   30.9877    1.8079 C.2       9 UNK         0.5033 
     58 O          35.6798   31.7014    2.4991 O.2       9 UNK        -0.5390 
     59 N          34.8063   29.6690    1.9923 N.am      10 UNK        -0.4215 
     60 CA         35.3024   28.9356    3.1537 C.3       10 UNK         0.0240 
     61 CB         35.5228   27.4634    2.7699 C.3       10 UNK        -0.1982 
     62 C          34.2850   29.0634    4.2971 C.2       10 UNK         0.4970 
     63 O          33.0961   28.8494    4.0619 O.2       10 UNK        -0.4916 
     64 N          34.7802   29.4175    5.4888 N.am      11 UNK        -0.4279 
     65 CA         34.0641   29.6617    6.7572 C.3       11 UNK         0.1003 
     66 C          32.9620   30.7667    6.7717 C.2       11 UNK         0.5709 
     67 N          32.5923   31.3768    5.6539 N.am      11 UNK        -0.7358 
     68 O          32.4624   31.1122    7.8396 O.2       11 UNK        -0.4999 
     69 C69        33.6553   28.3599    7.5117 C.3       12 UNK        -0.0954 
     70 S70        32.1927   27.4835    6.8575 S.3       12 UNK        -0.2268 
     71 C71        32.9662   26.0033    6.1471 C.3       12 UNK         0.0203 
     72 H72        30.8993   20.3413   -0.0278 H         1 UNK         0.0888 
     73 H73        30.1515   19.3833   -1.3073 H         1 UNK         0.0888 
     74 H74        31.9039   19.6003   -1.2750 H         1 UNK         0.0888 
     75 H75        30.5435   22.5315   -0.3504 H         1 UNK         0.3017 
     76 H76        31.0496   23.8011   -2.9144 H         1 UNK         0.0873 
     77 H77        31.8987   25.0246   -1.0766 H         1 UNK         0.0745 
     78 H78        30.5290   25.9291   -1.6191 H         1 UNK         0.0745 
     79 H79        31.9187   23.5217    1.2236 H         1 UNK         0.0705 
     80 H80        32.3971   25.2029    1.2663 H         1 UNK         0.0705 
     81 H81        32.9565   25.8812    3.4348 H         1 UNK         0.1334 
     82 H82        30.8513   24.4453    6.8726 H         1 UNK         0.1417 
     83 H83        29.6722   23.1656    2.9484 H         1 UNK         0.1562 
     84 H84        29.1307   22.8071    6.6643 H         1 UNK         0.0748 
     85 H85        29.0773   21.8718    5.1925 H         1 UNK         0.0748 
     86 H86        28.2215   25.2249    6.7350 H         1 UNK         0.0940 
     87 H87        26.4961   25.3660    6.5361 H         1 UNK         0.0940 
     88 H88        28.5672   26.1296    4.4080 H         1 UNK         0.0703 
     89 H89        25.8095   25.7142    4.0848 H         1 UNK         0.3081 
     90 H90        24.9705   26.0406    1.9351 H         1 UNK         0.0719 
     91 H91        24.3619   28.9536    2.7054 H         1 UNK         0.0809 
     92 H92        23.2115   27.8125    2.0118 H         1 UNK         0.0809 
     93 H93        23.8736   27.5329    3.6124 H         1 UNK         0.0809 
     94 H94        25.2268   28.5141    0.4304 H         1 UNK         0.2990 
     95 H95        25.6944   28.0939   -1.9510 H         1 UNK         0.0690 
     96 H96        27.8028   29.4223   -2.1611 H         1 UNK         0.0788 
     97 H97        28.5375   28.4932   -0.8568 H         1 UNK         0.0788 
     98 H98        27.1752   29.5498   -0.5279 H         1 UNK         0.0788 
     99 H99        28.2451   26.7657   -2.5294 H         1 UNK         0.2993 
    100 H100       26.8872   24.0460   -4.2575 H         1 UNK         0.0949 
    101 H101       26.6578   25.7595   -6.0552 H         1 UNK         0.0767 
    102 H102       28.1698   26.5098   -5.5639 H         1 UNK         0.0767 
    103 H103       28.1638   24.8738   -6.2254 H         1 UNK         0.0767 
    104 H104       29.5371   25.1953   -3.9849 H         1 UNK         0.3013 
    105 H105       29.7105   27.7713    5.1149 H         1 UNK         0.3121 
    106 H106       30.4317   29.6522    5.8973 H         1 UNK         0.0774 
    107 H107       29.5080   30.7693    7.8697 H         1 UNK         0.0815 
    108 H108       27.9852   29.9105    7.7169 H         1 UNK         0.0815 
    109 H109       29.4648   29.0339    8.1187 H         1 UNK         0.0815 
    110 H110       27.7581   29.5599    3.9342 H         1 UNK         0.2987 
    111 H111       27.7309   32.4977    3.4507 H         1 UNK         0.0949 
    112 H112       26.2571   30.2643    1.9640 H         1 UNK         0.0806 
    113 H113       25.5674   31.1951    3.2964 H         1 UNK         0.0806 
    114 H114       26.0105   31.9918    1.7943 H         1 UNK         0.0806 
    115 H115       29.2284   29.5394    2.4404 H         1 UNK         0.3010 
    116 H116       30.3284   30.3209   -0.0835 H         1 UNK         0.0829 
    117 H117       30.0958   27.9391    0.7977 H         1 UNK         0.0813 
    118 H118       31.7298   28.2940    0.2690 H         1 UNK         0.0813 
    119 H119       31.3448   28.2771    1.9852 H         1 UNK         0.0813 
    120 H120       32.7218   30.4863   -0.4422 H         1 UNK         0.3038 
    121 H121       33.9156   32.6560    0.9630 H         1 UNK         0.0769 
    122 H122       34.3943   32.1734   -1.4245 H         1 UNK         0.0811 
    123 H123       35.1537   30.6401   -0.9926 H         1 UNK         0.0811 
    124 H124       35.8839   32.1602   -0.4969 H         1 UNK         0.0811 
    125 H125       34.1436   29.1827    1.4076 H         1 UNK         0.3204 
    126 H126       36.2607   29.3550    3.4685 H         1 UNK         0.0748 
    127 H127       36.3129   27.3660    2.0251 H         1 UNK         0.0771 
    128 H128       35.8192   26.8707    3.6365 H         1 UNK         0.0771 
    129 H129       34.6207   27.0138    2.3554 H         1 UNK         0.0771 
    130 H130       35.7731   29.5929    5.5405 H         1 UNK         0.2980 
    131 H131       34.8454   30.1075    7.3740 H         1 UNK         0.0545 
    132 H132       32.9094   31.0391    4.7563 H         1 UNK         0.3459 
    133 H133       31.8731   32.0819    5.6944 H         1 UNK         0.3459 
    134 H134       33.4411   28.5984    8.5548 H         1 UNK         0.0616 
    135 H135       34.5033   27.6747    7.5475 H         1 UNK         0.0616 
    136 H136       33.3083   25.3539    6.9541 H         1 UNK         0.0634 
    137 H137       33.8556   26.2957    5.5870 H         1 UNK         0.0634 
@<TRIPOS>BOND
     1    1    2 1    
     2    1   72 1    
     3    1   73 1    
     4    1   74 1    
     5    2    3 2    
     6    2    4 am   BACKBONE|DICT|INTERRES
     7    4    5 1    
     8    4   75 1    
     9    5    6 1    
    10    5   35 1    
    11    5   76 1    
    12    6    7 1    
    13    6   77 1    
    14    6   78 1    
    15    7    8 1    
    16    8    9 1    
    17    8   79 1    
    18    8   80 1    
    19    9   10 ar   
    20    9   14 ar   
    21   10   11 ar   
    22   10   81 1    
    23   11   12 ar   
    24   11   71 1    
    25   12   13 ar   
    26   12   82 1    
    27   13   14 ar   
    28   13   15 1    
    29   14   83 1    
    30   15   16 1    
    31   15   84 1    
    32   15   85 1    
    33   16   17 1    
    34   17   18 1    
    35   17   86 1    
    36   17   87 1    
    37   18   19 1    
    38   18   37 1    
    39   18   88 1    
    40   19   20 am   BACKBONE|DICT|INTERRES
    41   19   89 1    
    42   20   21 2    
    43   20   22 1    
    44   22   23 1    
    45   22   24 1    
    46   22   90 1    
    47   23   91 1    
    48   23   92 1    
    49   23   93 1    
    50   24   25 am   BACKBONE|DICT|INTERRES
    51   24   94 1    
    52   25   26 2    
    53   25   27 1    
    54   27   28 1    
    55   27   29 1    
    56   27   95 1    
    57   28   96 1    
    58   28   97 1    
    59   28   98 1    
    60   29   30 am   BACKBONE|DICT|INTERRES
    61   29   99 1    
    62   30   31 2    
    63   30   32 1    
    64   32   33 1    
    65   32   34 1    
    66   32  100 1    
    67   33  101 1    
    68   33  102 1    
    69   33  103 1    
    70   34   35 am   BACKBONE|DICT|INTERRES
    71   34  104 1    
    72   35   36 2    
    73   37   38 2    
    74   37   39 am   BACKBONE|DICT|INTERRES
    75   39   40 1    
    76   39  105 1    
    77   40   41 1    
    78   40   42 1    
    79   40  106 1    
    80   41  107 1    
    81   41  108 1    
    82   41  109 1    
    83   42   43 2    
    84   42   44 am   BACKBONE|DICT|INTERRES
    85   44   45 1    
    86   44  110 1    
    87   45   46 1    
    88   45   47 1    
    89   45  111 1    
    90   46  112 1    
    91   46  113 1    
    92   46  114 1    
    93   47   48 2    
    94   47   49 am   BACKBONE|DICT|INTERRES
    95   49   50 1    
    96   49  115 1    
    97   50   51 1    
    98   50   52 1    
    99   50  116 1    
   100   51  117 1    
   101   51  118 1    
   102   51  119 1    
   103   52   53 2    
   104   52   54 am   BACKBONE|DICT|INTERRES
   105   54   55 1    
   106   54  120 1    
   107   55   56 1    
   108   55   57 1    
   109   55  121 1    
   110   56  122 1    
   111   56  123 1    
   112   56  124 1    
   113   57   58 2    
   114   57   59 am   BACKBONE|DICT|INTERRES
   115   59   60 1    
   116   59  125 1    
   117   60   61 1    
   118   60   62 1    
   119   60  126 1    
   120   61  127 1    
   121   61  128 1    
   122   61  129 1    
   123   62   63 2    
   124   62   64 am   BACKBONE|DICT|INTERRES
   125   64   65 1    
   126   64  130 1    
   127   65   66 1    
   128   65   69 1    
   129   65  131 1    
   130   66   67 am   BACKBONE|DICT|INTERRES
   131   66   68 2    
   132   67  132 1    
   133   67  133 1    
   134   69   70 1    
   135   69  134 1    
   136   69  135 1    
   137   70   71 1    
   138   71  136 1    
   139   71  137 1    
@<TRIPOS>SUBSTRUCTURE
     1 UNK         1 GROUP             0       ****    0 ROOT    
