@<TRIPOS>MOLECULE
3R136
137   139    1
SMALL
USER_CHARGES


@<TRIPOS>ATOM
      1 CA         28.2381   23.5751   -2.8873 C.3       0 UNK        -0.1979 
      2 C          28.5120   23.8782   -1.4226 C.2       0 UNK         0.4864 
      3 O          27.9236   24.8144   -0.8772 O.2       0 UNK        -0.5359 
      4 N          29.3973   23.0959   -0.7911 N.am      1 UNK        -0.4318 
      5 CA         29.8103   23.2117    0.6113 C.3       1 UNK         0.0824 
      6 C6         30.8725   22.1439    0.9816 C.3       12 UNK        -0.0944 
      7 S7         32.4469   22.3869    0.0929 S.3       12 UNK        -0.2672 
      8 C8         33.4555   23.2109    1.3686 C.3       12 UNK         0.0333 
      9 C9         32.8589   24.5538    1.7603 C.ar      12 UNK        -0.0807 
     10 C10        32.1248   24.6854    2.9424 C.ar      12 UNK        -0.0894 
     11 C11        31.5209   25.9018    3.2695 C.ar      12 UNK        -0.0804 
     12 C12        31.6879   27.0016    2.4238 C.ar      12 UNK        -0.0824 
     13 C13        32.4161   26.8819    1.2344 C.ar      12 UNK        -0.0762 
     14 C14        33.0048   25.6556    0.9143 C.ar      12 UNK        -0.0782 
     15 C15        32.5882   28.0608    0.2827 C.3       12 UNK         0.0230 
     16 S16        31.0947   29.0826    0.0606 S.3       12 UNK        -0.2608 
     17 C17        29.9091   27.8879   -0.6386 C.3       12 UNK        -0.0989 
     18 CA         28.4533   28.2850   -0.2925 C.3       5 UNK         0.0716 
     19 N          27.4979   27.5768   -1.1341 N.am      5 UNK        -0.4135 
     20 C          26.4523   28.1331   -1.7574 C.2       4 UNK         0.5031 
     21 O          26.2464   29.3461   -1.8127 O.2       4 UNK        -0.5229 
     22 CA         25.4378   27.1650   -2.3894 C.3       4 UNK         0.0329 
     23 CB         25.9010   26.7268   -3.7878 C.3       4 UNK        -0.2001 
     24 N          25.2068   25.9834   -1.5542 N.am      4 UNK        -0.4303 
     25 C          24.5980   26.0003   -0.3602 C.2       3 UNK         0.5044 
     26 O          24.0892   27.0049    0.1369 O.2       3 UNK        -0.5152 
     27 CA         24.5778   24.6860    0.4271 C.3       3 UNK         0.0319 
     28 CB         24.4959   23.4301   -0.4639 C.3       3 UNK        -0.2001 
     29 N          25.7888   24.6275    1.2391 N.am      3 UNK        -0.4354 
     30 C          25.8317   24.4053    2.5595 C.2       2 UNK         0.4964 
     31 O          24.8281   24.2221    3.2505 O.2       2 UNK        -0.5047 
     32 CA         27.2209   24.3980    3.2339 C.3       2 UNK         0.0288 
     33 CB         27.3066   23.4049    4.4136 C.3       2 UNK        -0.2113 
     34 N          28.3334   24.2088    2.2947 N.am      2 UNK        -0.4145 
     35 C          28.6063   23.1147    1.5676 C.2       1 UNK         0.5006 
     36 O          27.9573   22.0668    1.6123 O.2       1 UNK        -0.5103 
     37 C          28.0522   27.9710    1.1584 C.2       5 UNK         0.5055 
     38 O          28.5770   27.0321    1.7587 O.2       5 UNK        -0.5220 
     39 N          27.0524   28.7065    1.6606 N.am      6 UNK        -0.4450 
     40 CA         26.4581   28.4893    2.9796 C.3       6 UNK         0.0367 
     41 CB         25.0827   29.1725    3.0431 C.3       6 UNK        -0.1929 
     42 C          27.3531   28.9702    4.1322 C.2       6 UNK         0.5070 
     43 O          27.4636   28.2724    5.1399 O.2       6 UNK        -0.5237 
     44 N          27.9511   30.1581    3.9758 N.am      7 UNK        -0.4739 
     45 CA         28.7161   30.8486    5.0138 C.3       7 UNK         0.0276 
     46 CB         27.7638   31.4553    6.0671 C.3       7 UNK        -0.1927 
     47 C          29.6298   31.8978    4.3673 C.2       7 UNK         0.5013 
     48 O          29.4140   33.0982    4.5455 O.2       7 UNK        -0.5193 
     49 N          30.6176   31.4300    3.5988 N.am      8 UNK        -0.4253 
     50 CA         31.6470   32.2507    2.9669 C.3       8 UNK         0.0242 
     51 CB         31.1570   32.7407    1.5922 C.3       8 UNK        -0.2000 
     52 C          32.9311   31.4241    2.8435 C.2       8 UNK         0.4948 
     53 O          32.8697   30.1946    2.9386 O.2       8 UNK        -0.5275 
     54 N          34.0616   32.1199    2.6441 N.am      9 UNK        -0.4246 
     55 CA         35.4251   31.5980    2.4741 C.3       9 UNK         0.0261 
     56 CB         35.6235   31.0649    1.0393 C.3       9 UNK        -0.1959 
     57 C          35.8150   30.5940    3.5752 C.2       9 UNK         0.5033 
     58 O          36.1157   31.0219    4.6908 O.2       9 UNK        -0.5390 
     59 N          35.7520   29.2903    3.2666 N.am      10 UNK        -0.4215 
     60 CA         35.9754   28.1759    4.1952 C.3       10 UNK         0.0240 
     61 CB         35.8511   26.8492    3.4278 C.3       10 UNK        -0.1982 
     62 C          35.0337   28.1726    5.4156 C.2       10 UNK         0.4970 
     63 O          35.4378   27.6970    6.4777 O.2       10 UNK        -0.4916 
     64 N          33.8246   28.7197    5.2476 N.am      11 UNK        -0.4279 
     65 CA         32.8331   28.9473    6.3069 C.3       11 UNK         0.1003 
     66 C          32.6679   30.4577    6.6508 C.2       11 UNK         0.5709 
     67 N          33.5930   31.3363    6.2801 N.am      11 UNK        -0.7358 
     68 O          31.6886   30.8481    7.2814 O.2       11 UNK        -0.4999 
     69 C69        31.4834   28.2634    5.9670 C.3       12 UNK        -0.0954 
     70 S70        31.6023   26.4450    5.9852 S.3       12 UNK        -0.2268 
     71 C71        30.6443   26.0017    4.5075 C.3       12 UNK         0.0203 
     72 H72        28.7405   22.6652   -3.2150 H         1 UNK         0.0888 
     73 H73        27.1692   23.4484   -3.0543 H         1 UNK         0.0888 
     74 H74        28.5881   24.3977   -3.5099 H         1 UNK         0.0888 
     75 H75        29.8401   22.3456   -1.3013 H         1 UNK         0.3017 
     76 H76        30.2546   24.2024    0.7270 H         1 UNK         0.0873 
     77 H77        30.5027   21.1430    0.7504 H         1 UNK         0.0745 
     78 H78        31.0706   22.1411    2.0548 H         1 UNK         0.0745 
     79 H79        33.5501   22.5583    2.2380 H         1 UNK         0.0705 
     80 H80        34.4661   23.3574    0.9845 H         1 UNK         0.0705 
     81 H81        31.9962   23.8331    3.5953 H         1 UNK         0.1334 
     82 H82        31.2220   27.9439    2.6737 H         1 UNK         0.1417 
     83 H83        33.5647   25.5479   -0.0049 H         1 UNK         0.1562 
     84 H84        32.9187   27.7204   -0.6998 H         1 UNK         0.0748 
     85 H85        33.3812   28.6925    0.6753 H         1 UNK         0.0748 
     86 H86        30.1357   26.8711   -0.3118 H         1 UNK         0.0940 
     87 H87        30.0484   27.8908   -1.7207 H         1 UNK         0.0940 
     88 H88        28.3543   29.3619   -0.4464 H         1 UNK         0.0703 
     89 H89        27.5694   26.5600   -1.1023 H         1 UNK         0.3081 
     90 H90        24.4890   27.6958   -2.4937 H         1 UNK         0.0719 
     91 H91        26.8493   26.1903   -3.7517 H         1 UNK         0.0809 
     92 H92        25.1654   26.0794   -4.2655 H         1 UNK         0.0809 
     93 H93        26.0413   27.5911   -4.4385 H         1 UNK         0.0809 
     94 H94        25.6289   25.1192   -1.8605 H         1 UNK         0.2990 
     95 H95        23.6874   24.7118    1.0588 H         1 UNK         0.0690 
     96 H96        23.6584   23.4942   -1.1601 H         1 UNK         0.0788 
     97 H97        24.3414   22.5376    0.1428 H         1 UNK         0.0788 
     98 H98        25.4042   23.2716   -1.0453 H         1 UNK         0.0788 
     99 H99        26.6605   24.7858    0.7426 H         1 UNK         0.2993 
    100 H100       27.3570   25.3974    3.6484 H         1 UNK         0.0949 
    101 H101       28.2976   23.4077    4.8666 H         1 UNK         0.0767 
    102 H102       26.5944   23.6678    5.1967 H         1 UNK         0.0767 
    103 H103       27.0818   22.3843    4.1030 H         1 UNK         0.0767 
    104 H104       28.8579   25.0599    2.1061 H         1 UNK         0.3013 
    105 H105       26.6370   29.4228    1.0815 H         1 UNK         0.3121 
    106 H106       26.2968   27.4182    3.1081 H         1 UNK         0.0774 
    107 H107       25.1550   30.2506    2.8952 H         1 UNK         0.0815 
    108 H108       24.6111   29.0077    4.0129 H         1 UNK         0.0815 
    109 H109       24.4076   28.7735    2.2857 H         1 UNK         0.0815 
    110 H110       27.8341   30.6564    3.1040 H         1 UNK         0.2987 
    111 H111       29.3608   30.1311    5.5218 H         1 UNK         0.0949 
    112 H112       27.0549   32.1510    5.6166 H         1 UNK         0.0806 
    113 H113       27.1933   30.6837    6.5838 H         1 UNK         0.0806 
    114 H114       28.3231   32.0019    6.8277 H         1 UNK         0.0806 
    115 H115       30.7661   30.4340    3.4977 H         1 UNK         0.3010 
    116 H116       31.8647   33.1104    3.6048 H         1 UNK         0.0829 
    117 H117       30.2643   33.3589    1.6877 H         1 UNK         0.0813 
    118 H118       31.9153   33.3450    1.0932 H         1 UNK         0.0813 
    119 H119       30.9160   31.9085    0.9311 H         1 UNK         0.0813 
    120 H120       33.9898   33.1277    2.6225 H         1 UNK         0.3038 
    121 H121       36.0980   32.4483    2.5966 H         1 UNK         0.0769 
    122 H122       36.6222   30.6466    0.9054 H         1 UNK         0.0811 
    123 H123       34.9005   30.2957    0.7786 H         1 UNK         0.0811 
    124 H124       35.5157   31.8682    0.3104 H         1 UNK         0.0811 
    125 H125       35.4429   29.0453    2.3378 H         1 UNK         0.3204 
    126 H126       36.9968   28.2643    4.5707 H         1 UNK         0.0748 
    127 H127       36.0552   25.9997    4.0810 H         1 UNK         0.0771 
    128 H128       34.8469   26.7122    3.0248 H         1 UNK         0.0771 
    129 H129       36.5579   26.7971    2.5995 H         1 UNK         0.0771 
    130 H130       33.5849   29.1138    4.3411 H         1 UNK         0.2980 
    131 H131       33.1891   28.5043    7.2382 H         1 UNK         0.0545 
    132 H132       33.4710   32.3035    6.5325 H         1 UNK         0.3459 
    133 H133       34.4321   31.0476    5.7897 H         1 UNK         0.3459 
    134 H134       31.1241   28.6062    4.9963 H         1 UNK         0.0616 
    135 H135       30.7136   28.5260    6.6943 H         1 UNK         0.0616 
    136 H136       30.1609   25.0412    4.6886 H         1 UNK         0.0634 
    137 H137       29.8343   26.7161    4.3505 H         1 UNK         0.0634 
@<TRIPOS>BOND
     1    1    2 1    
     2    1   72 1    
     3    1   73 1    
     4    1   74 1    
     5    2    3 2    
     6    2    4 am   BACKBONE|DICT|INTERRES
     7    4    5 1    
     8    4   75 1    
     9    5    6 1    
    10    5   35 1    
    11    5   76 1    
    12    6    7 1    
    13    6   77 1    
    14    6   78 1    
    15    7    8 1    
    16    8    9 1    
    17    8   79 1    
    18    8   80 1    
    19    9   10 ar   
    20    9   14 ar   
    21   10   11 ar   
    22   10   81 1    
    23   11   12 ar   
    24   11   71 1    
    25   12   13 ar   
    26   12   82 1    
    27   13   14 ar   
    28   13   15 1    
    29   14   83 1    
    30   15   16 1    
    31   15   84 1    
    32   15   85 1    
    33   16   17 1    
    34   17   18 1    
    35   17   86 1    
    36   17   87 1    
    37   18   19 1    
    38   18   37 1    
    39   18   88 1    
    40   19   20 am   BACKBONE|DICT|INTERRES
    41   19   89 1    
    42   20   21 2    
    43   20   22 1    
    44   22   23 1    
    45   22   24 1    
    46   22   90 1    
    47   23   91 1    
    48   23   92 1    
    49   23   93 1    
    50   24   25 am   BACKBONE|DICT|INTERRES
    51   24   94 1    
    52   25   26 2    
    53   25   27 1    
    54   27   28 1    
    55   27   29 1    
    56   27   95 1    
    57   28   96 1    
    58   28   97 1    
    59   28   98 1    
    60   29   30 am   BACKBONE|DICT|INTERRES
    61   29   99 1    
    62   30   31 2    
    63   30   32 1    
    64   32   33 1    
    65   32   34 1    
    66   32  100 1    
    67   33  101 1    
    68   33  102 1    
    69   33  103 1    
    70   34   35 am   BACKBONE|DICT|INTERRES
    71   34  104 1    
    72   35   36 2    
    73   37   38 2    
    74   37   39 am   BACKBONE|DICT|INTERRES
    75   39   40 1    
    76   39  105 1    
    77   40   41 1    
    78   40   42 1    
    79   40  106 1    
    80   41  107 1    
    81   41  108 1    
    82   41  109 1    
    83   42   43 2    
    84   42   44 am   BACKBONE|DICT|INTERRES
    85   44   45 1    
    86   44  110 1    
    87   45   46 1    
    88   45   47 1    
    89   45  111 1    
    90   46  112 1    
    91   46  113 1    
    92   46  114 1    
    93   47   48 2    
    94   47   49 am   BACKBONE|DICT|INTERRES
    95   49   50 1    
    96   49  115 1    
    97   50   51 1    
    98   50   52 1    
    99   50  116 1    
   100   51  117 1    
   101   51  118 1    
   102   51  119 1    
   103   52   53 2    
   104   52   54 am   BACKBONE|DICT|INTERRES
   105   54   55 1    
   106   54  120 1    
   107   55   56 1    
   108   55   57 1    
   109   55  121 1    
   110   56  122 1    
   111   56  123 1    
   112   56  124 1    
   113   57   58 2    
   114   57   59 am   BACKBONE|DICT|INTERRES
   115   59   60 1    
   116   59  125 1    
   117   60   61 1    
   118   60   62 1    
   119   60  126 1    
   120   61  127 1    
   121   61  128 1    
   122   61  129 1    
   123   62   63 2    
   124   62   64 am   BACKBONE|DICT|INTERRES
   125   64   65 1    
   126   64  130 1    
   127   65   66 1    
   128   65   69 1    
   129   65  131 1    
   130   66   67 am   BACKBONE|DICT|INTERRES
   131   66   68 2    
   132   67  132 1    
   133   67  133 1    
   134   69   70 1    
   135   69  134 1    
   136   69  135 1    
   137   70   71 1    
   138   71  136 1    
   139   71  137 1    
@<TRIPOS>SUBSTRUCTURE
     1 UNK         1 GROUP             0       ****    0 ROOT    
