@<TRIPOS>MOLECULE
3R136
137   139    1
SMALL
USER_CHARGES


@<TRIPOS>ATOM
      1 CA         25.0422   21.7245   -1.0804 C.3       0 UNK        -0.1979 
      2 C          26.3487   22.0074   -0.3539 C.2       0 UNK         0.4864 
      3 O          26.3830   21.9503    0.8763 O.2       0 UNK        -0.5359 
      4 N          27.4113   22.3201   -1.1121 N.am      1 UNK        -0.4318 
      5 CA         28.7774   22.6249   -0.6648 C.3       1 UNK         0.0824 
      6 C6         29.5758   21.3574   -0.2430 C.3       12 UNK        -0.0944 
      7 S7         31.3480   21.4987   -0.6577 S.3       12 UNK        -0.2672 
      8 C8         32.1756   21.5156    0.9717 C.3       12 UNK         0.0333 
      9 C9         32.3713   22.9051    1.5791 C.ar      12 UNK        -0.0807 
     10 C10        32.2782   23.0651    2.9659 C.ar      12 UNK        -0.0894 
     11 C11        32.5168   24.3080    3.5600 C.ar      12 UNK        -0.0804 
     12 C12        32.8595   25.3976    2.7581 C.ar      12 UNK        -0.0824 
     13 C13        32.9498   25.2623    1.3701 C.ar      12 UNK        -0.0762 
     14 C14        32.7119   24.0115    0.7888 C.ar      12 UNK        -0.0782 
     15 C15        33.3104   26.4608    0.4938 C.3       12 UNK         0.0230 
     16 S16        32.3905   27.9806    0.9246 S.3       12 UNK        -0.2608 
     17 C17        30.6783   27.3575    0.9325 C.3       12 UNK        -0.0989 
     18 CA         29.6302   28.3929    0.4688 C.3       5 UNK         0.0716 
     19 N          28.4057   27.7264    0.0195 N.am      5 UNK        -0.4135 
     20 C          27.3211   28.3173   -0.5014 C.2       4 UNK         0.5031 
     21 O          27.2025   29.5328   -0.6566 O.2       4 UNK        -0.5229 
     22 CA         26.1641   27.3857   -0.8926 C.3       4 UNK         0.0329 
     23 CB         26.4512   26.6834   -2.2301 C.3       4 UNK        -0.2001 
     24 N          25.9256   26.3839    0.1469 N.am      4 UNK        -0.4303 
     25 C          25.1840   26.5984    1.2425 C.2       3 UNK         0.5044 
     26 O          24.5406   27.6282    1.4457 O.2       3 UNK        -0.5152 
     27 CA         25.1662   25.4828    2.3032 C.3       3 UNK         0.0319 
     28 CB         24.0147   24.5012    2.0368 C.3       3 UNK        -0.2001 
     29 N          26.4267   24.7407    2.3971 N.am      3 UNK        -0.4354 
     30 C          27.5922   25.2742    2.7945 C.2       2 UNK         0.4964 
     31 O          27.7390   26.4557    3.1022 O.2       2 UNK        -0.5047 
     32 CA         28.8141   24.3429    2.8070 C.3       2 UNK         0.0288 
     33 CB         28.8251   23.5199    4.1056 C.3       2 UNK        -0.2113 
     34 N          28.8762   23.4338    1.6613 N.am      2 UNK        -0.4145 
     35 C          28.7844   23.7708    0.3660 C.2       1 UNK         0.5006 
     36 O          28.6365   24.9269   -0.0343 O.2       1 UNK        -0.5103 
     37 C          29.3722   29.4580    1.5526 C.2       5 UNK         0.5055 
     38 O          29.9676   30.5325    1.4820 O.2       5 UNK        -0.5220 
     39 N          28.4539   29.1735    2.4902 N.am      6 UNK        -0.4450 
     40 CA         28.0327   30.0474    3.5943 C.3       6 UNK         0.0367 
     41 CB         26.9210   29.3455    4.3921 C.3       6 UNK        -0.1929 
     42 C          27.5762   31.4646    3.1932 C.2       6 UNK         0.5070 
     43 O          27.5992   32.3619    4.0362 O.2       6 UNK        -0.5237 
     44 N          27.1742   31.6549    1.9292 N.am      7 UNK        -0.4739 
     45 CA         26.8274   32.9581    1.3621 C.3       7 UNK         0.0276 
     46 CB         25.9895   32.7383    0.0919 C.3       7 UNK        -0.1927 
     47 C          28.0504   33.8444    1.0504 C.2       7 UNK         0.5013 
     48 O          27.8651   35.0486    0.8663 O.2       7 UNK        -0.5193 
     49 N          29.2544   33.2576    0.9659 N.am      8 UNK        -0.4253 
     50 CA         30.4831   33.9411    0.5499 C.3       8 UNK         0.0242 
     51 CB         30.8484   33.4883   -0.8745 C.3       8 UNK        -0.2000 
     52 C          31.6694   33.7104    1.4995 C.2       8 UNK         0.4948 
     53 O          32.4828   34.6229    1.6560 O.2       8 UNK        -0.5275 
     54 N          31.7799   32.5170    2.0944 N.am      9 UNK        -0.4246 
     55 CA         32.9026   32.0962    2.9323 C.3       9 UNK         0.0261 
     56 CB         34.0432   31.5574    2.0396 C.3       9 UNK        -0.1959 
     57 C          32.4213   31.0991    4.0011 C.2       9 UNK         0.5033 
     58 O          31.2715   31.1806    4.4356 O.2       9 UNK        -0.5390 
     59 N          33.3126   30.2016    4.4341 N.am      10 UNK        -0.4215 
     60 CA         33.1111   29.1772    5.4565 C.3       10 UNK         0.0240 
     61 CB         33.0296   29.8249    6.8565 C.3       10 UNK        -0.1982 
     62 C          34.2733   28.1753    5.3604 C.2       10 UNK         0.4970 
     63 O          35.1335   28.3236    4.4871 O.2       10 UNK        -0.4916 
     64 N          34.2920   27.1894    6.2621 N.am      11 UNK        -0.4279 
     65 CA         35.3683   26.2019    6.4099 C.3       11 UNK         0.1003 
     66 C          35.6148   25.8512    7.9027 C.2       11 UNK         0.5709 
     67 N          36.6809   25.1216    8.2027 N.am      11 UNK        -0.7358 
     68 O          34.8544   26.2343    8.7915 O.2       11 UNK        -0.4999 
     69 C69        35.1690   24.9656    5.4867 C.3       12 UNK        -0.0954 
     70 S70        33.8175   23.8340    5.9764 S.3       12 UNK        -0.2268 
     71 C71        32.3839   24.4848    5.0651 C.3       12 UNK         0.0203 
     72 H72        24.6401   20.7621   -0.7651 H         1 UNK         0.0888 
     73 H73        24.3065   22.4934   -0.8486 H         1 UNK         0.0888 
     74 H74        25.1743   21.6963   -2.1619 H         1 UNK         0.0888 
     75 H75        27.2817   22.3725   -2.1130 H         1 UNK         0.3017 
     76 H76        29.2588   23.0367   -1.5537 H         1 UNK         0.0873 
     77 H77        29.2121   20.4998   -0.8114 H         1 UNK         0.0745 
     78 H78        29.4299   21.0751    0.7998 H         1 UNK         0.0745 
     79 H79        33.1625   21.0676    0.8503 H         1 UNK         0.0705 
     80 H80        31.6328   20.8638    1.6579 H         1 UNK         0.0705 
     81 H81        32.0307   22.2182    3.5913 H         1 UNK         0.1334 
     82 H82        33.0496   26.3594    3.2138 H         1 UNK         0.1417 
     83 H83        32.8035   23.8969   -0.2825 H         1 UNK         0.1562 
     84 H84        33.1272   26.2356   -0.5580 H         1 UNK         0.0748 
     85 H85        34.3791   26.6576    0.5873 H         1 UNK         0.0748 
     86 H86        30.4436   26.9769    1.9273 H         1 UNK         0.0940 
     87 H87        30.6522   26.4946    0.2664 H         1 UNK         0.0940 
     88 H88        30.0261   28.9125   -0.4063 H         1 UNK         0.0703 
     89 H89        28.4169   26.7093    0.0688 H         1 UNK         0.3081 
     90 H90        25.2672   27.9963   -1.0189 H         1 UNK         0.0719 
     91 H91        25.6108   26.0608   -2.5373 H         1 UNK         0.0809 
     92 H92        26.6199   27.4131   -3.0233 H         1 UNK         0.0809 
     93 H93        27.3362   26.0481   -2.1785 H         1 UNK         0.0809 
     94 H94        26.4626   25.5290    0.0880 H         1 UNK         0.2990 
     95 H95        24.9912   25.9573    3.2713 H         1 UNK         0.0690 
     96 H96        23.0574   25.0232    1.9991 H         1 UNK         0.0788 
     97 H97        23.9428   23.7502    2.8238 H         1 UNK         0.0788 
     98 H98        24.1403   23.9807    1.0875 H         1 UNK         0.0788 
     99 H99        26.4093   23.7640    2.1228 H         1 UNK         0.2993 
    100 H100       29.7123   24.9604    2.7804 H         1 UNK         0.0949 
    101 H101       27.9323   22.8998    4.1984 H         1 UNK         0.0767 
    102 H102       29.6898   22.8602    4.1578 H         1 UNK         0.0767 
    103 H103       28.8614   24.1725    4.9791 H         1 UNK         0.0767 
    104 H104       28.9271   22.4506    1.8812 H         1 UNK         0.3013 
    105 H105       28.0582   28.2362    2.5004 H         1 UNK         0.3121 
    106 H106       28.8938   30.1676    4.2523 H         1 UNK         0.0774 
    107 H107       26.0679   29.0968    3.7593 H         1 UNK         0.0815 
    108 H108       26.5556   29.9785    5.2020 H         1 UNK         0.0815 
    109 H109       27.2819   28.4237    4.8479 H         1 UNK         0.0815 
    110 H110       27.1904   30.8695    1.2898 H         1 UNK         0.2987 
    111 H111       26.2121   33.4977    2.0857 H         1 UNK         0.0949 
    112 H112       26.5584   32.2194   -0.6807 H         1 UNK         0.0806 
    113 H113       25.0952   32.1511    0.3012 H         1 UNK         0.0806 
    114 H114       25.6608   33.6894   -0.3294 H         1 UNK         0.0806 
    115 H115       29.3293   32.2613    1.1577 H         1 UNK         0.3010 
    116 H116       30.3204   35.0208    0.5252 H         1 UNK         0.0829 
    117 H117       30.0601   33.7405   -1.5840 H         1 UNK         0.0813 
    118 H118       31.7622   33.9746   -1.2189 H         1 UNK         0.0813 
    119 H119       31.0115   32.4106   -0.9237 H         1 UNK         0.0813 
    120 H120       31.0650   31.8032    1.9472 H         1 UNK         0.3038 
    121 H121       33.2759   32.9627    3.4819 H         1 UNK         0.0769 
    122 H122       33.7525   30.6389    1.5287 H         1 UNK         0.0811 
    123 H123       34.9454   31.3504    2.6158 H         1 UNK         0.0811 
    124 H124       34.3233   32.2832    1.2760 H         1 UNK         0.0811 
    125 H125       34.2226   30.1459    3.9910 H         1 UNK         0.3204 
    126 H126       32.1836   28.6432    5.2398 H         1 UNK         0.0748 
    127 H127       33.9547   30.3430    7.1124 H         1 UNK         0.0771 
    128 H128       32.2170   30.5490    6.9170 H         1 UNK         0.0771 
    129 H129       32.8437   29.0825    7.6331 H         1 UNK         0.0771 
    130 H130       33.5935   27.1559    6.9920 H         1 UNK         0.2980 
    131 H131       36.2927   26.6910    6.0958 H         1 UNK         0.0545 
    132 H132       37.3105   24.7975    7.4854 H         1 UNK         0.3459 
    133 H133       36.8551   24.8842    9.1667 H         1 UNK         0.3459 
    134 H134       35.0267   25.2883    4.4560 H         1 UNK         0.0616 
    135 H135       36.0865   24.3758    5.4693 H         1 UNK         0.0616 
    136 H136       32.2340   25.5343    5.3201 H         1 UNK         0.0634 
    137 H137       31.4924   23.9625    5.4126 H         1 UNK         0.0634 
@<TRIPOS>BOND
     1    1    2 1    
     2    1   72 1    
     3    1   73 1    
     4    1   74 1    
     5    2    3 2    
     6    2    4 am   BACKBONE|DICT|INTERRES
     7    4    5 1    
     8    4   75 1    
     9    5    6 1    
    10    5   35 1    
    11    5   76 1    
    12    6    7 1    
    13    6   77 1    
    14    6   78 1    
    15    7    8 1    
    16    8    9 1    
    17    8   79 1    
    18    8   80 1    
    19    9   10 ar   
    20    9   14 ar   
    21   10   11 ar   
    22   10   81 1    
    23   11   12 ar   
    24   11   71 1    
    25   12   13 ar   
    26   12   82 1    
    27   13   14 ar   
    28   13   15 1    
    29   14   83 1    
    30   15   16 1    
    31   15   84 1    
    32   15   85 1    
    33   16   17 1    
    34   17   18 1    
    35   17   86 1    
    36   17   87 1    
    37   18   19 1    
    38   18   37 1    
    39   18   88 1    
    40   19   20 am   BACKBONE|DICT|INTERRES
    41   19   89 1    
    42   20   21 2    
    43   20   22 1    
    44   22   23 1    
    45   22   24 1    
    46   22   90 1    
    47   23   91 1    
    48   23   92 1    
    49   23   93 1    
    50   24   25 am   BACKBONE|DICT|INTERRES
    51   24   94 1    
    52   25   26 2    
    53   25   27 1    
    54   27   28 1    
    55   27   29 1    
    56   27   95 1    
    57   28   96 1    
    58   28   97 1    
    59   28   98 1    
    60   29   30 am   BACKBONE|DICT|INTERRES
    61   29   99 1    
    62   30   31 2    
    63   30   32 1    
    64   32   33 1    
    65   32   34 1    
    66   32  100 1    
    67   33  101 1    
    68   33  102 1    
    69   33  103 1    
    70   34   35 am   BACKBONE|DICT|INTERRES
    71   34  104 1    
    72   35   36 2    
    73   37   38 2    
    74   37   39 am   BACKBONE|DICT|INTERRES
    75   39   40 1    
    76   39  105 1    
    77   40   41 1    
    78   40   42 1    
    79   40  106 1    
    80   41  107 1    
    81   41  108 1    
    82   41  109 1    
    83   42   43 2    
    84   42   44 am   BACKBONE|DICT|INTERRES
    85   44   45 1    
    86   44  110 1    
    87   45   46 1    
    88   45   47 1    
    89   45  111 1    
    90   46  112 1    
    91   46  113 1    
    92   46  114 1    
    93   47   48 2    
    94   47   49 am   BACKBONE|DICT|INTERRES
    95   49   50 1    
    96   49  115 1    
    97   50   51 1    
    98   50   52 1    
    99   50  116 1    
   100   51  117 1    
   101   51  118 1    
   102   51  119 1    
   103   52   53 2    
   104   52   54 am   BACKBONE|DICT|INTERRES
   105   54   55 1    
   106   54  120 1    
   107   55   56 1    
   108   55   57 1    
   109   55  121 1    
   110   56  122 1    
   111   56  123 1    
   112   56  124 1    
   113   57   58 2    
   114   57   59 am   BACKBONE|DICT|INTERRES
   115   59   60 1    
   116   59  125 1    
   117   60   61 1    
   118   60   62 1    
   119   60  126 1    
   120   61  127 1    
   121   61  128 1    
   122   61  129 1    
   123   62   63 2    
   124   62   64 am   BACKBONE|DICT|INTERRES
   125   64   65 1    
   126   64  130 1    
   127   65   66 1    
   128   65   69 1    
   129   65  131 1    
   130   66   67 am   BACKBONE|DICT|INTERRES
   131   66   68 2    
   132   67  132 1    
   133   67  133 1    
   134   69   70 1    
   135   69  134 1    
   136   69  135 1    
   137   70   71 1    
   138   71  136 1    
   139   71  137 1    
@<TRIPOS>SUBSTRUCTURE
     1 UNK         1 GROUP             0       ****    0 ROOT    
