@<TRIPOS>MOLECULE
3R136
137   139    1
SMALL
USER_CHARGES


@<TRIPOS>ATOM
      1 CA         30.5606   26.0555    4.2788 C.3       0 UNK        -0.1979 
      2 C          29.3896   25.1480    3.9579 C.2       0 UNK         0.4864 
      3 O          28.4105   25.1325    4.7061 O.2       0 UNK        -0.5359 
      4 N          29.4776   24.3862    2.8599 N.am      1 UNK        -0.4318 
      5 CA         28.3796   23.5614    2.3617 C.3       1 UNK         0.0824 
      6 C6         28.8717   22.3968    1.4649 C.3       12 UNK        -0.0944 
      7 S7         29.7827   22.8764   -0.0463 S.3       12 UNK        -0.2672 
      8 C8         31.5179   22.5006    0.3732 C.3       12 UNK         0.0333 
      9 C9         32.2899   23.7146    0.8798 C.ar      12 UNK        -0.0807 
     10 C10        33.0234   23.6438    2.0701 C.ar      12 UNK        -0.0894 
     11 C11        33.8216   24.7195    2.4748 C.ar      12 UNK        -0.0804 
     12 C12        33.8584   25.8792    1.6976 C.ar      12 UNK        -0.0824 
     13 C13        33.1084   25.9801    0.5238 C.ar      12 UNK        -0.0762 
     14 C14        32.3410   24.8840    0.1122 C.ar      12 UNK        -0.0782 
     15 C15        33.1891   27.2622   -0.3031 C.3       12 UNK         0.0230 
     16 S16        31.6183   27.7594   -1.0843 S.3       12 UNK        -0.2608 
     17 C17        30.5473   28.0144    0.3710 C.3       12 UNK        -0.0989 
     18 CA         29.0773   28.3343   -0.0093 C.3       5 UNK         0.0716 
     19 N          28.4767   27.2820   -0.8297 N.am      5 UNK        -0.4135 
     20 C          28.2085   27.3839   -2.1362 C.2       4 UNK         0.5031 
     21 O          28.2947   28.4353   -2.7726 O.2       4 UNK        -0.5229 
     22 CA         27.8008   26.1047   -2.8788 C.3       4 UNK         0.0329 
     23 CB         29.0402   25.2499   -3.1965 C.3       4 UNK        -0.2001 
     24 N          26.8221   25.2980   -2.1443 N.am      4 UNK        -0.4303 
     25 C          25.7414   24.7356   -2.7083 C.2       3 UNK         0.5044 
     26 O          25.4406   24.8743   -3.8952 O.2       3 UNK        -0.5152 
     27 CA         24.8394   23.8453   -1.8297 C.3       3 UNK         0.0319 
     28 CB         25.1174   22.3602   -2.1160 C.3       3 UNK        -0.2001 
     29 N          24.9849   24.0814   -0.3944 N.am      3 UNK        -0.4354 
     30 C          24.6018   25.1926    0.2479 C.2       2 UNK         0.4964 
     31 O          23.9893   26.1147   -0.2898 O.2       2 UNK        -0.5047 
     32 CA         24.9871   25.3100    1.7352 C.3       2 UNK         0.0288 
     33 CB         23.7618   25.0668    2.6310 C.3       2 UNK        -0.2113 
     34 N          26.0835   24.4304    2.1672 N.am      2 UNK        -0.4145 
     35 C          27.3335   24.4679    1.6825 C.2       1 UNK         0.5006 
     36 O          27.6706   25.1856    0.7378 O.2       1 UNK        -0.5103 
     37 C          28.1829   28.5535    1.2215 C.2       5 UNK         0.5055 
     38 O          28.6000   28.2990    2.3530 O.2       5 UNK        -0.5220 
     39 N          26.9439   28.9959    0.9720 N.am      6 UNK        -0.4450 
     40 CA         25.9966   29.4070    2.0077 C.3       6 UNK         0.0367 
     41 CB         24.5838   29.4630    1.4040 C.3       6 UNK        -0.1929 
     42 C          26.3808   30.7764    2.5944 C.2       6 UNK         0.5070 
     43 O          26.9650   31.6033    1.8907 O.2       6 UNK        -0.5237 
     44 N          26.0131   30.9971    3.8632 N.am      7 UNK        -0.4739 
     45 CA         26.1698   32.2182    4.6718 C.3       7 UNK         0.0276 
     46 CB         25.4446   33.4188    4.0314 C.3       7 UNK        -0.1927 
     47 C          27.6167   32.5887    5.0540 C.2       7 UNK         0.5013 
     48 O          27.8282   33.0413    6.1802 O.2       7 UNK        -0.5193 
     49 N          28.5816   32.3928    4.1502 N.am      8 UNK        -0.4253 
     50 CA         30.0049   32.6391    4.3684 C.3       8 UNK         0.0242 
     51 CB         30.3483   34.0925    3.9961 C.3       8 UNK        -0.2000 
     52 C          30.8208   31.6482    3.5332 C.2       8 UNK         0.4948 
     53 O          30.4085   31.3007    2.4241 O.2       8 UNK        -0.5275 
     54 N          31.9712   31.2324    4.0713 N.am      9 UNK        -0.4246 
     55 CA         32.8990   30.2777    3.4740 C.3       9 UNK         0.0261 
     56 CB         32.3443   28.8515    3.6288 C.3       9 UNK        -0.1959 
     57 C          34.2437   30.3927    4.1971 C.2       9 UNK         0.5033 
     58 O          34.2798   30.8621    5.3384 O.2       9 UNK        -0.5390 
     59 N          35.3142   29.9077    3.5533 N.am      10 UNK        -0.4215 
     60 CA         36.6741   29.8553    4.1082 C.3       10 UNK         0.0240 
     61 CB         37.6474   29.3640    3.0239 C.3       10 UNK        -0.1982 
     62 C          36.7981   28.9864    5.3751 C.2       10 UNK         0.4970 
     63 O          37.6099   29.3010    6.2459 O.2       10 UNK        -0.4916 
     64 N          35.9794   27.9309    5.4588 N.am      11 UNK        -0.4279 
     65 CA         35.8050   27.0775    6.6430 C.3       11 UNK         0.1003 
     66 C          34.8765   27.6777    7.7427 C.2       11 UNK         0.5709 
     67 N          34.2852   28.8544    7.5651 N.am      11 UNK        -0.7358 
     68 O          34.7046   27.0693    8.7965 O.2       11 UNK        -0.4999 
     69 C69        35.4068   25.6268    6.2496 C.3       12 UNK        -0.0954 
     70 S70        33.9738   25.5331    5.1188 S.3       12 UNK        -0.2268 
     71 C71        34.6941   24.6252    3.7175 C.3       12 UNK         0.0203 
     72 H72        30.2032   27.0770    4.4001 H         1 UNK         0.0888 
     73 H73        31.3130   26.0438    3.4907 H         1 UNK         0.0888 
     74 H74        31.0280   25.7456    5.2123 H         1 UNK         0.0888 
     75 H75        30.2858   24.4471    2.2557 H         1 UNK         0.3017 
     76 H76        27.9015   23.0944    3.2260 H         1 UNK         0.0873 
     77 H77        29.4920   21.7252    2.0597 H         1 UNK         0.0745 
     78 H78        28.0194   21.7905    1.1532 H         1 UNK         0.0745 
     79 H79        31.5638   21.6757    1.0853 H         1 UNK         0.0705 
     80 H80        32.0128   22.1414   -0.5301 H         1 UNK         0.0705 
     81 H81        33.0076   22.7378    2.6607 H         1 UNK         0.1334 
     82 H82        34.4898   26.7012    2.0045 H         1 UNK         0.1417 
     83 H83        31.7886   24.9340   -0.8163 H         1 UNK         0.1562 
     84 H84        33.9366   27.1226   -1.0848 H         1 UNK         0.0748 
     85 H85        33.5376   28.0924    0.3132 H         1 UNK         0.0748 
     86 H86        30.9663   28.8376    0.9511 H         1 UNK         0.0940 
     87 H87        30.5922   27.1269    1.0051 H         1 UNK         0.0940 
     88 H88        29.0806   29.2825   -0.5513 H         1 UNK         0.0703 
     89 H89        28.3040   26.4063   -0.3367 H         1 UNK         0.3081 
     90 H90        27.3721   26.4320   -3.8285 H         1 UNK         0.0719 
     91 H91        29.5226   24.8880   -2.2882 H         1 UNK         0.0809 
     92 H92        28.7800   24.3842   -3.8056 H         1 UNK         0.0809 
     93 H93        29.7820   25.8270   -3.7503 H         1 UNK         0.0809 
     94 H94        26.9950   25.1490   -1.1555 H         1 UNK         0.2990 
     95 H95        23.8040   24.0595   -2.1033 H         1 UNK         0.0690 
     96 H96        24.4363   21.7136   -1.5623 H         1 UNK         0.0788 
     97 H97        26.1384   22.0824   -1.8500 H         1 UNK         0.0788 
     98 H98        24.9845   22.1349   -3.1753 H         1 UNK         0.0788 
     99 H99        25.4730   23.3733    0.1335 H         1 UNK         0.2993 
    100 H100       25.3233   26.3374    1.8887 H         1 UNK         0.0949 
    101 H101       22.9396   25.7302    2.3581 H         1 UNK         0.0767 
    102 H102       23.3968   24.0425    2.5454 H         1 UNK         0.0767 
    103 H103       23.9921   25.2567    3.6797 H         1 UNK         0.0767 
    104 H104       25.8848   23.8208    2.9478 H         1 UNK         0.3013 
    105 H105       26.6886   29.1997    0.0166 H         1 UNK         0.3121 
    106 H106       26.0085   28.6622    2.8067 H         1 UNK         0.0774 
    107 H107       24.5145   30.2048    0.6072 H         1 UNK         0.0815 
    108 H108       23.8450   29.7297    2.1608 H         1 UNK         0.0815 
    109 H109       24.2869   28.4998    0.9905 H         1 UNK         0.0815 
    110 H110       25.5614   30.2340    4.3494 H         1 UNK         0.2987 
    111 H111       25.6589   32.0032    5.6121 H         1 UNK         0.0949 
    112 H112       25.9074   33.7239    3.0925 H         1 UNK         0.0806 
    113 H113       24.3977   33.1904    3.8316 H         1 UNK         0.0806 
    114 H114       25.4660   34.2838    4.6957 H         1 UNK         0.0806 
    115 H115       28.3328   32.0099    3.2403 H         1 UNK         0.3010 
    116 H116       30.2417   32.4728    5.4219 H         1 UNK         0.0829 
    117 H117       29.7956   34.8015    4.6128 H         1 UNK         0.0813 
    118 H118       31.4102   34.2944    4.1428 H         1 UNK         0.0813 
    119 H119       30.1154   34.3041    2.9516 H         1 UNK         0.0813 
    120 H120       32.2836   31.5951    4.9649 H         1 UNK         0.3038 
    121 H121       33.0337   30.5198    2.4176 H         1 UNK         0.0769 
    122 H122       32.2863   28.5553    4.6774 H         1 UNK         0.0811 
    123 H123       32.9734   28.1248    3.1193 H         1 UNK         0.0811 
    124 H124       31.3442   28.7645    3.2075 H         1 UNK         0.0811 
    125 H125       35.1976   29.5533    2.6150 H         1 UNK         0.3204 
    126 H126       36.9556   30.8736    4.3849 H         1 UNK         0.0748 
    127 H127       38.6708   29.3382    3.4013 H         1 UNK         0.0771 
    128 H128       37.4007   28.3574    2.6833 H         1 UNK         0.0771 
    129 H129       37.6424   30.0241    2.1562 H         1 UNK         0.0771 
    130 H130       35.3375   27.7514    4.7026 H         1 UNK         0.2980 
    131 H131       36.7795   27.0005    7.1287 H         1 UNK         0.0545 
    132 H132       33.6990   29.2164    8.2997 H         1 UNK         0.3459 
    133 H133       34.4302   29.4052    6.7272 H         1 UNK         0.3459 
    134 H134       36.2640   25.1432    5.7797 H         1 UNK         0.0616 
    135 H135       35.1908   25.0230    7.1328 H         1 UNK         0.0616 
    136 H136       35.6813   25.0300    3.4885 H         1 UNK         0.0634 
    137 H137       34.8461   23.5840    4.0060 H         1 UNK         0.0634 
@<TRIPOS>BOND
     1    1    2 1    
     2    1   72 1    
     3    1   73 1    
     4    1   74 1    
     5    2    3 2    
     6    2    4 am   BACKBONE|DICT|INTERRES
     7    4    5 1    
     8    4   75 1    
     9    5    6 1    
    10    5   35 1    
    11    5   76 1    
    12    6    7 1    
    13    6   77 1    
    14    6   78 1    
    15    7    8 1    
    16    8    9 1    
    17    8   79 1    
    18    8   80 1    
    19    9   10 ar   
    20    9   14 ar   
    21   10   11 ar   
    22   10   81 1    
    23   11   12 ar   
    24   11   71 1    
    25   12   13 ar   
    26   12   82 1    
    27   13   14 ar   
    28   13   15 1    
    29   14   83 1    
    30   15   16 1    
    31   15   84 1    
    32   15   85 1    
    33   16   17 1    
    34   17   18 1    
    35   17   86 1    
    36   17   87 1    
    37   18   19 1    
    38   18   37 1    
    39   18   88 1    
    40   19   20 am   BACKBONE|DICT|INTERRES
    41   19   89 1    
    42   20   21 2    
    43   20   22 1    
    44   22   23 1    
    45   22   24 1    
    46   22   90 1    
    47   23   91 1    
    48   23   92 1    
    49   23   93 1    
    50   24   25 am   BACKBONE|DICT|INTERRES
    51   24   94 1    
    52   25   26 2    
    53   25   27 1    
    54   27   28 1    
    55   27   29 1    
    56   27   95 1    
    57   28   96 1    
    58   28   97 1    
    59   28   98 1    
    60   29   30 am   BACKBONE|DICT|INTERRES
    61   29   99 1    
    62   30   31 2    
    63   30   32 1    
    64   32   33 1    
    65   32   34 1    
    66   32  100 1    
    67   33  101 1    
    68   33  102 1    
    69   33  103 1    
    70   34   35 am   BACKBONE|DICT|INTERRES
    71   34  104 1    
    72   35   36 2    
    73   37   38 2    
    74   37   39 am   BACKBONE|DICT|INTERRES
    75   39   40 1    
    76   39  105 1    
    77   40   41 1    
    78   40   42 1    
    79   40  106 1    
    80   41  107 1    
    81   41  108 1    
    82   41  109 1    
    83   42   43 2    
    84   42   44 am   BACKBONE|DICT|INTERRES
    85   44   45 1    
    86   44  110 1    
    87   45   46 1    
    88   45   47 1    
    89   45  111 1    
    90   46  112 1    
    91   46  113 1    
    92   46  114 1    
    93   47   48 2    
    94   47   49 am   BACKBONE|DICT|INTERRES
    95   49   50 1    
    96   49  115 1    
    97   50   51 1    
    98   50   52 1    
    99   50  116 1    
   100   51  117 1    
   101   51  118 1    
   102   51  119 1    
   103   52   53 2    
   104   52   54 am   BACKBONE|DICT|INTERRES
   105   54   55 1    
   106   54  120 1    
   107   55   56 1    
   108   55   57 1    
   109   55  121 1    
   110   56  122 1    
   111   56  123 1    
   112   56  124 1    
   113   57   58 2    
   114   57   59 am   BACKBONE|DICT|INTERRES
   115   59   60 1    
   116   59  125 1    
   117   60   61 1    
   118   60   62 1    
   119   60  126 1    
   120   61  127 1    
   121   61  128 1    
   122   61  129 1    
   123   62   63 2    
   124   62   64 am   BACKBONE|DICT|INTERRES
   125   64   65 1    
   126   64  130 1    
   127   65   66 1    
   128   65   69 1    
   129   65  131 1    
   130   66   67 am   BACKBONE|DICT|INTERRES
   131   66   68 2    
   132   67  132 1    
   133   67  133 1    
   134   69   70 1    
   135   69  134 1    
   136   69  135 1    
   137   70   71 1    
   138   71  136 1    
   139   71  137 1    
@<TRIPOS>SUBSTRUCTURE
     1 UNK         1 GROUP             0       ****    0 ROOT    
