@<TRIPOS>MOLECULE
3R136
137   139    1
SMALL
USER_CHARGES


@<TRIPOS>ATOM
      1 CA         27.4632   21.4295    3.3363 C.3       0 UNK        -0.1979 
      2 C          27.5923   22.1233    1.9883 C.2       0 UNK         0.4864 
      3 O          27.2891   23.3112    1.8978 O.2       0 UNK        -0.5359 
      4 N          28.0425   21.3812    0.9647 N.am      1 UNK        -0.4318 
      5 CA         28.2410   21.7539   -0.4479 C.3       1 UNK         0.0824 
      6 C6         29.5626   22.5324   -0.7442 C.3       12 UNK        -0.0944 
      7 S7         29.8426   24.0898    0.1663 S.3       12 UNK        -0.2672 
      8 C8         31.0891   23.5383    1.3800 C.3       12 UNK         0.0333 
      9 C9         31.2528   24.5547    2.4979 C.ar      12 UNK        -0.0807 
     10 C10        32.2030   25.5756    2.3995 C.ar      12 UNK        -0.0894 
     11 C11        32.3040   26.5501    3.3983 C.ar      12 UNK        -0.0804 
     12 C12        31.4237   26.5128    4.4841 C.ar      12 UNK        -0.0824 
     13 C13        30.4704   25.4961    4.5928 C.ar      12 UNK        -0.0762 
     14 C14        30.4206   24.4945    3.6190 C.ar      12 UNK        -0.0782 
     15 C15        29.4537   25.5165    5.7278 C.3       12 UNK         0.0230 
     16 S16        27.7373   25.7133    5.1270 S.3       12 UNK        -0.2608 
     17 C17        27.8646   27.1594    4.0147 C.3       12 UNK        -0.0989 
     18 CA         27.9627   26.7265    2.5270 C.3       5 UNK         0.0716 
     19 N          26.7947   26.0091    2.0212 N.am      5 UNK        -0.4135 
     20 C          25.5419   26.4548    1.8876 C.2       4 UNK         0.5031 
     21 O          25.1478   27.5641    2.2526 O.2       4 UNK        -0.5229 
     22 CA         24.5881   25.4810    1.1706 C.3       4 UNK         0.0329 
     23 CB         23.0963   25.7619    1.4535 C.3       4 UNK        -0.2001 
     24 N          24.8796   25.4578   -0.2692 N.am      4 UNK        -0.4303 
     25 C          24.7659   26.4796   -1.1366 C.2       3 UNK         0.5044 
     26 O          24.2326   27.5563   -0.8678 O.2       3 UNK        -0.5152 
     27 CA         25.3775   26.3118   -2.5406 C.3       3 UNK         0.0319 
     28 CB         26.4921   27.3482   -2.7552 C.3       3 UNK        -0.2001 
     29 N          25.9240   24.9757   -2.7875 N.am      3 UNK        -0.4354 
     30 C          25.2059   23.9402   -3.2395 C.2       2 UNK         0.4964 
     31 O          24.0045   24.0019   -3.5030 O.2       2 UNK        -0.5047 
     32 CA         25.9477   22.6058   -3.4304 C.3       2 UNK         0.0288 
     33 CB         26.4399   22.4725   -4.8812 C.3       2 UNK        -0.2113 
     34 N          27.0757   22.3764   -2.5167 N.am      2 UNK        -0.4145 
     35 C          26.9838   22.2928   -1.1801 C.2       1 UNK         0.5006 
     36 O          25.9427   22.5506   -0.5708 O.2       1 UNK        -0.5103 
     37 C          28.3879   27.8517    1.5692 C.2       5 UNK         0.5055 
     38 O          28.1378   29.0303    1.8319 O.2       5 UNK        -0.5220 
     39 N          29.0309   27.4455    0.4636 N.am      6 UNK        -0.4450 
     40 CA         29.6360   28.3155   -0.5456 C.3       6 UNK         0.0367 
     41 CB         30.2005   27.4478   -1.6870 C.3       6 UNK        -0.1929 
     42 C          30.7484   29.1809    0.0688 C.2       6 UNK         0.5070 
     43 O          31.7907   28.6406    0.4385 O.2       6 UNK        -0.5237 
     44 N          30.4953   30.4939    0.1736 N.am      7 UNK        -0.4739 
     45 CA         31.3596   31.5079    0.7935 C.3       7 UNK         0.0276 
     46 CB         32.6441   31.7206   -0.0372 C.3       7 UNK        -0.1927 
     47 C          31.6497   31.2032    2.2765 C.2       7 UNK         0.5013 
     48 O          32.8083   31.2285    2.6941 O.2       7 UNK        -0.5193 
     49 N          30.5810   30.9251    3.0418 N.am      8 UNK        -0.4253 
     50 CA         30.5780   30.5123    4.4543 C.3       8 UNK         0.0242 
     51 CB         29.1437   30.5991    5.0021 C.3       8 UNK        -0.2000 
     52 C          31.5294   31.2938    5.3782 C.2       8 UNK         0.4948 
     53 O          32.1986   30.6857    6.2142 O.2       8 UNK        -0.5275 
     54 N          31.6030   32.6168    5.1775 N.am      9 UNK        -0.4246 
     55 CA         32.4715   33.5415    5.9094 C.3       9 UNK         0.0261 
     56 CB         32.1237   34.9829    5.5026 C.3       9 UNK        -0.1959 
     57 C          33.9813   33.2852    5.7352 C.2       9 UNK         0.5033 
     58 O          34.7500   33.6932    6.6072 O.2       9 UNK        -0.5390 
     59 N          34.3909   32.6265    4.6397 N.am      10 UNK        -0.4215 
     60 CA         35.7815   32.2283    4.4059 C.3       10 UNK         0.0240 
     61 CB         36.0034   31.9572    2.9086 C.3       10 UNK        -0.1982 
     62 C          36.1810   31.0004    5.2409 C.2       10 UNK         0.4970 
     63 O          37.3432   30.9001    5.6366 O.2       10 UNK        -0.4916 
     64 N          35.2237   30.0981    5.4907 N.am      11 UNK        -0.4279 
     65 CA         35.4084   28.9036    6.3262 C.3       11 UNK         0.1003 
     66 C          35.1748   29.2019    7.8304 C.2       11 UNK         0.5709 
     67 N          34.1880   30.0164    8.1850 N.am      11 UNK        -0.7358 
     68 O          35.9007   28.6952    8.6824 O.2       11 UNK        -0.4999 
     69 C69        34.5226   27.7229    5.8566 C.3       12 UNK        -0.0954 
     70 S70        34.8878   27.2202    4.1399 S.3       12 UNK        -0.2268 
     71 C71        33.3443   27.6565    3.2817 C.3       12 UNK         0.0203 
     72 H72        27.9045   20.4331    3.3284 H         1 UNK         0.0888 
     73 H73        27.9599   22.0134    4.1104 H         1 UNK         0.0888 
     74 H74        26.4118   21.3354    3.6063 H         1 UNK         0.0888 
     75 H75        28.2375   20.4084    1.1543 H         1 UNK         0.3017 
     76 H76        28.3821   20.7805   -0.9211 H         1 UNK         0.0873 
     77 H77        30.4039   21.8681   -0.5411 H         1 UNK         0.0745 
     78 H78        29.6531   22.7580   -1.8075 H         1 UNK         0.0745 
     79 H79        30.7897   22.5771    1.8008 H         1 UNK         0.0705 
     80 H80        32.0408   23.3724    0.8729 H         1 UNK         0.0705 
     81 H81        32.8531   25.6234    1.5365 H         1 UNK         0.1334 
     82 H82        31.4670   27.2842    5.2390 H         1 UNK         0.1417 
     83 H83        29.6706   23.7193    3.6898 H         1 UNK         0.1562 
     84 H84        29.6726   26.3219    6.4307 H         1 UNK         0.0748 
     85 H85        29.5275   24.5868    6.2935 H         1 UNK         0.0748 
     86 H86        28.7416   27.7403    4.3011 H         1 UNK         0.0940 
     87 H87        27.0049   27.8114    4.1754 H         1 UNK         0.0940 
     88 H88        28.7610   25.9970    2.4563 H         1 UNK         0.0703 
     89 H89        26.9801   25.0349    1.7729 H         1 UNK         0.3081 
     90 H90        24.8034   24.4783    1.5444 H         1 UNK         0.0719 
     91 H91        22.8860   25.6766    2.5201 H         1 UNK         0.0809 
     92 H92        22.7964   26.7644    1.1479 H         1 UNK         0.0809 
     93 H93        22.4548   25.0481    0.9370 H         1 UNK         0.0809 
     94 H94        25.3166   24.6028   -0.5964 H         1 UNK         0.2990 
     95 H95        24.5879   26.5143   -3.2677 H         1 UNK         0.0690 
     96 H96        26.9961   27.2109   -3.7121 H         1 UNK         0.0788 
     97 H97        27.2360   27.2921   -1.9626 H         1 UNK         0.0788 
     98 H98        26.0888   28.3617   -2.7445 H         1 UNK         0.0788 
     99 H99        26.9049   24.8352   -2.5937 H         1 UNK         0.2993 
    100 H100       25.2190   21.8131   -3.2463 H         1 UNK         0.0949 
    101 H101       27.2038   23.2144   -5.1181 H         1 UNK         0.0767 
    102 H102       26.8596   21.4842   -5.0701 H         1 UNK         0.0767 
    103 H103       25.6198   22.6127   -5.5871 H         1 UNK         0.0767 
    104 H104       27.9561   22.1455   -2.9542 H         1 UNK         0.3013 
    105 H105       29.2218   26.4567    0.3625 H         1 UNK         0.3121 
    106 H106       28.8547   28.9611   -0.9515 H         1 UNK         0.0774 
    107 H107       30.9983   26.7908   -1.3370 H         1 UNK         0.0815 
    108 H108       29.4389   26.8173   -2.1423 H         1 UNK         0.0815 
    109 H109       30.6191   28.0722   -2.4772 H         1 UNK         0.0815 
    110 H110       29.5920   30.8248   -0.1383 H         1 UNK         0.2987 
    111 H111       30.8023   32.4459    0.7793 H         1 UNK         0.0949 
    112 H112       32.4119   31.9593   -1.0749 H         1 UNK         0.0806 
    113 H113       33.2336   32.5473    0.3616 H         1 UNK         0.0806 
    114 H114       33.2836   30.8372   -0.0303 H         1 UNK         0.0806 
    115 H115       29.6836   30.8842    2.5767 H         1 UNK         0.3010 
    116 H116       30.8866   29.4674    4.4729 H         1 UNK         0.0829 
    117 H117       28.7955   31.6312    5.0598 H         1 UNK         0.0813 
    118 H118       29.0838   30.1782    6.0069 H         1 UNK         0.0813 
    119 H119       28.4373   30.0530    4.3787 H         1 UNK         0.0813 
    120 H120       31.0249   33.0168    4.4528 H         1 UNK         0.3038 
    121 H121       32.2489   33.4235    6.9720 H         1 UNK         0.0769 
    122 H122       31.0798   35.2156    5.7139 H         1 UNK         0.0811 
    123 H123       32.3001   35.1560    4.4402 H         1 UNK         0.0811 
    124 H124       32.7309   35.7019    6.0546 H         1 UNK         0.0811 
    125 H125       33.7042   32.2866    3.9685 H         1 UNK         0.3204 
    126 H126       36.4324   33.0561    4.6960 H         1 UNK         0.0748 
    127 H127       35.4361   31.0919    2.5638 H         1 UNK         0.0771 
    128 H128       35.7114   32.8137    2.3007 H         1 UNK         0.0771 
    129 H129       37.0555   31.7559    2.7032 H         1 UNK         0.0771 
    130 H130       34.2823   30.2792    5.1733 H         1 UNK         0.2980 
    131 H131       36.4456   28.5752    6.2320 H         1 UNK         0.0545 
    132 H132       33.5376   30.3706    7.4883 H         1 UNK         0.3459 
    133 H133       34.0387   30.2167    9.1604 H         1 UNK         0.3459 
    134 H134       33.4697   27.9845    5.9573 H         1 UNK         0.0616 
    135 H135       34.6816   26.8499    6.4923 H         1 UNK         0.0616 
    136 H136       33.5778   27.8372    2.2320 H         1 UNK         0.0634 
    137 H137       32.9557   28.5990    3.6673 H         1 UNK         0.0634 
@<TRIPOS>BOND
     1    1    2 1    
     2    1   72 1    
     3    1   73 1    
     4    1   74 1    
     5    2    3 2    
     6    2    4 am   BACKBONE|DICT|INTERRES
     7    4    5 1    
     8    4   75 1    
     9    5    6 1    
    10    5   35 1    
    11    5   76 1    
    12    6    7 1    
    13    6   77 1    
    14    6   78 1    
    15    7    8 1    
    16    8    9 1    
    17    8   79 1    
    18    8   80 1    
    19    9   10 ar   
    20    9   14 ar   
    21   10   11 ar   
    22   10   81 1    
    23   11   12 ar   
    24   11   71 1    
    25   12   13 ar   
    26   12   82 1    
    27   13   14 ar   
    28   13   15 1    
    29   14   83 1    
    30   15   16 1    
    31   15   84 1    
    32   15   85 1    
    33   16   17 1    
    34   17   18 1    
    35   17   86 1    
    36   17   87 1    
    37   18   19 1    
    38   18   37 1    
    39   18   88 1    
    40   19   20 am   BACKBONE|DICT|INTERRES
    41   19   89 1    
    42   20   21 2    
    43   20   22 1    
    44   22   23 1    
    45   22   24 1    
    46   22   90 1    
    47   23   91 1    
    48   23   92 1    
    49   23   93 1    
    50   24   25 am   BACKBONE|DICT|INTERRES
    51   24   94 1    
    52   25   26 2    
    53   25   27 1    
    54   27   28 1    
    55   27   29 1    
    56   27   95 1    
    57   28   96 1    
    58   28   97 1    
    59   28   98 1    
    60   29   30 am   BACKBONE|DICT|INTERRES
    61   29   99 1    
    62   30   31 2    
    63   30   32 1    
    64   32   33 1    
    65   32   34 1    
    66   32  100 1    
    67   33  101 1    
    68   33  102 1    
    69   33  103 1    
    70   34   35 am   BACKBONE|DICT|INTERRES
    71   34  104 1    
    72   35   36 2    
    73   37   38 2    
    74   37   39 am   BACKBONE|DICT|INTERRES
    75   39   40 1    
    76   39  105 1    
    77   40   41 1    
    78   40   42 1    
    79   40  106 1    
    80   41  107 1    
    81   41  108 1    
    82   41  109 1    
    83   42   43 2    
    84   42   44 am   BACKBONE|DICT|INTERRES
    85   44   45 1    
    86   44  110 1    
    87   45   46 1    
    88   45   47 1    
    89   45  111 1    
    90   46  112 1    
    91   46  113 1    
    92   46  114 1    
    93   47   48 2    
    94   47   49 am   BACKBONE|DICT|INTERRES
    95   49   50 1    
    96   49  115 1    
    97   50   51 1    
    98   50   52 1    
    99   50  116 1    
   100   51  117 1    
   101   51  118 1    
   102   51  119 1    
   103   52   53 2    
   104   52   54 am   BACKBONE|DICT|INTERRES
   105   54   55 1    
   106   54  120 1    
   107   55   56 1    
   108   55   57 1    
   109   55  121 1    
   110   56  122 1    
   111   56  123 1    
   112   56  124 1    
   113   57   58 2    
   114   57   59 am   BACKBONE|DICT|INTERRES
   115   59   60 1    
   116   59  125 1    
   117   60   61 1    
   118   60   62 1    
   119   60  126 1    
   120   61  127 1    
   121   61  128 1    
   122   61  129 1    
   123   62   63 2    
   124   62   64 am   BACKBONE|DICT|INTERRES
   125   64   65 1    
   126   64  130 1    
   127   65   66 1    
   128   65   69 1    
   129   65  131 1    
   130   66   67 am   BACKBONE|DICT|INTERRES
   131   66   68 2    
   132   67  132 1    
   133   67  133 1    
   134   69   70 1    
   135   69  134 1    
   136   69  135 1    
   137   70   71 1    
   138   71  136 1    
   139   71  137 1    
@<TRIPOS>SUBSTRUCTURE
     1 UNK         1 GROUP             0       ****    0 ROOT    
