@<TRIPOS>MOLECULE
3R136
137   139    1
SMALL
USER_CHARGES


@<TRIPOS>ATOM
      1 CA         30.4224   27.0677   -3.7645 C.3       0 UNK        -0.1979 
      2 C          29.3197   26.6042   -2.8256 C.2       0 UNK         0.4864 
      3 O          28.1524   26.9386   -3.0362 O.2       0 UNK        -0.5359 
      4 N          29.6732   25.8202   -1.7987 N.am      1 UNK        -0.4318 
      5 CA         28.7901   25.3160   -0.7389 C.3       1 UNK         0.0824 
      6 C6         29.5828   24.9708    0.5498 C.3       12 UNK        -0.0944 
      7 S7         30.9652   23.8100    0.2771 S.3       12 UNK        -0.2672 
      8 C8         30.9049   22.8100    1.7989 C.3       12 UNK         0.0333 
      9 C9         31.4251   23.5723    3.0118 C.ar      12 UNK        -0.0807 
     10 C10        32.7526   24.0079    3.0424 C.ar      12 UNK        -0.0894 
     11 C11        33.2605   24.6692    4.1628 C.ar      12 UNK        -0.0804 
     12 C12        32.4210   24.9133    5.2539 C.ar      12 UNK        -0.0824 
     13 C13        31.0884   24.4846    5.2441 C.ar      12 UNK        -0.0762 
     14 C14        30.6024   23.8013    4.1201 C.ar      12 UNK        -0.0782 
     15 C15        30.2328   24.7127    6.4926 C.3       12 UNK         0.0230 
     16 S16        28.4402   24.9090    6.1935 S.3       12 UNK        -0.2608 
     17 C17        28.3676   26.5354    5.3690 C.3       12 UNK        -0.0989 
     18 CA         28.0498   26.4044    3.8552 C.3       5 UNK         0.0716 
     19 N          26.7913   25.7050    3.5760 N.am      5 UNK        -0.4135 
     20 C          25.5466   26.1470    3.7994 C.2       4 UNK         0.5031 
     21 O          25.2684   27.2450    4.2856 O.2       4 UNK        -0.5229 
     22 CA         24.4202   25.1828    3.3775 C.3       4 UNK         0.0329 
     23 CB         23.2581   25.2073    4.3868 C.3       4 UNK        -0.2001 
     24 N          23.8822   25.4160    2.0295 N.am      4 UNK        -0.4303 
     25 C          24.5676   25.6286    0.8967 C.2       3 UNK         0.5044 
     26 O          25.7897   25.7950    0.8344 O.2       3 UNK        -0.5152 
     27 CA         23.7399   25.6594   -0.3987 C.3       3 UNK         0.0319 
     28 CB         23.2180   27.0754   -0.6882 C.3       3 UNK        -0.2001 
     29 N          24.5847   25.2234   -1.5085 N.am      3 UNK        -0.4354 
     30 C          24.7465   23.9489   -1.8909 C.2       2 UNK         0.4964 
     31 O          24.0175   23.0216   -1.5369 O.2       2 UNK        -0.5047 
     32 CA         25.9710   23.6601   -2.7773 C.3       2 UNK         0.0288 
     33 CB         25.6747   23.9795   -4.2515 C.3       2 UNK        -0.2113 
     34 N          27.1331   24.4321   -2.3302 N.am      2 UNK        -0.4145 
     35 C          27.8161   24.2020   -1.1999 C.2       1 UNK         0.5006 
     36 O          27.6689   23.1821   -0.5229 O.2       1 UNK        -0.5103 
     37 C          28.1899   27.7383    3.0912 C.2       5 UNK         0.5055 
     38 O          28.8376   28.6581    3.5899 O.2       5 UNK        -0.5220 
     39 N          27.6507   27.8177    1.8647 N.am      6 UNK        -0.4450 
     40 CA         27.7795   28.9692    0.9580 C.3       6 UNK         0.0367 
     41 CB         26.6328   28.9317   -0.0674 C.3       6 UNK        -0.1929 
     42 C          29.1711   29.0897    0.2899 C.2       6 UNK         0.5070 
     43 O          29.2670   29.4744   -0.8761 O.2       6 UNK        -0.5237 
     44 N          30.2278   28.7572    1.0379 N.am      7 UNK        -0.4739 
     45 CA         31.6308   28.9076    0.6593 C.3       7 UNK         0.0276 
     46 CB         32.4566   27.8886    1.4642 C.3       7 UNK        -0.1927 
     47 C          32.1173   30.3413    0.9330 C.2       7 UNK         0.5013 
     48 O          31.4124   31.1206    1.5826 O.2       7 UNK        -0.5193 
     49 N          33.3347   30.6558    0.4661 N.am      8 UNK        -0.4253 
     50 CA         34.0299   31.9288    0.6917 C.3       8 UNK         0.0242 
     51 CB         35.4090   31.8836    0.0127 C.3       8 UNK        -0.2000 
     52 C          34.1644   32.2392    2.1930 C.2       8 UNK         0.4948 
     53 O          34.8542   31.5045    2.9041 O.2       8 UNK        -0.5275 
     54 N          33.4276   33.2635    2.6509 N.am      9 UNK        -0.4246 
     55 CA         33.2457   33.6702    4.0533 C.3       9 UNK         0.0261 
     56 CB         34.5465   34.2955    4.6014 C.3       9 UNK        -0.1959 
     57 C          32.7105   32.5414    4.9638 C.2       9 UNK         0.5033 
     58 O          33.0077   32.5346    6.1601 O.2       9 UNK        -0.5390 
     59 N          31.9843   31.5752    4.3759 N.am      10 UNK        -0.4215 
     60 CA         31.5330   30.3110    4.9733 C.3       10 UNK         0.0240 
     61 CB         30.3968   30.5652    5.9858 C.3       10 UNK        -0.1982 
     62 C          32.6778   29.4565    5.5609 C.2       10 UNK         0.4970 
     63 O          32.4453   28.6997    6.5051 O.2       10 UNK        -0.4916 
     64 N          33.8920   29.6154    5.0111 N.am      11 UNK        -0.4279 
     65 CA         35.1581   29.0640    5.5192 C.3       11 UNK         0.1003 
     66 C          35.6170   29.6625    6.8859 C.2       11 UNK         0.5709 
     67 N          35.0681   30.7805    7.3494 N.am      11 UNK        -0.7358 
     68 O          36.5162   29.1256    7.5293 O.2       11 UNK        -0.4999 
     69 C69        35.2129   27.5096    5.4913 C.3       12 UNK        -0.0954 
     70 S70        34.9755   26.8262    3.8189 S.3       12 UNK        -0.2268 
     71 C71        34.7292   25.0673    4.2044 C.3       12 UNK         0.0203 
     72 H72        30.2039   26.7549   -4.7851 H         1 UNK         0.0888 
     73 H73        30.4910   28.1552   -3.7467 H         1 UNK         0.0888 
     74 H74        31.3942   26.6616   -3.4843 H         1 UNK         0.0888 
     75 H75        30.6383   25.5356   -1.7037 H         1 UNK         0.3017 
     76 H76        28.1357   26.1454   -0.4688 H         1 UNK         0.0873 
     77 H77        28.9125   24.5786    1.3160 H         1 UNK         0.0745 
     78 H78        30.0011   25.8835    0.9735 H         1 UNK         0.0745 
     79 H79        31.5199   21.9206    1.6551 H         1 UNK         0.0705 
     80 H80        29.8862   22.4531    1.9590 H         1 UNK         0.0705 
     81 H81        33.3957   23.8145    2.1945 H         1 UNK         0.1334 
     82 H82        32.8145   25.4190    6.1249 H         1 UNK         0.1417 
     83 H83        29.5858   23.4341    4.1107 H         1 UNK         0.1562 
     84 H84        30.5884   25.5876    7.0398 H         1 UNK         0.0748 
     85 H85        30.3742   23.8599    7.1577 H         1 UNK         0.0748 
     86 H86        29.3199   27.0469    5.5247 H         1 UNK         0.0940 
     87 H87        27.6128   27.1472    5.8660 H         1 UNK         0.0940 
     88 H88        28.8285   25.7775    3.4237 H         1 UNK         0.0703 
     89 H89        26.8893   24.8045    3.1301 H         1 UNK         0.3081 
     90 H90        24.8301   24.1708    3.3822 H         1 UNK         0.0719 
     91 H91        22.7375   26.1658    4.3797 H         1 UNK         0.0809 
     92 H92        22.5277   24.4264    4.1741 H         1 UNK         0.0809 
     93 H93        23.6195   25.0412    5.4028 H         1 UNK         0.0809 
     94 H94        22.8788   25.3345    1.9509 H         1 UNK         0.2990 
     95 H95        22.8869   24.9855   -0.2928 H         1 UNK         0.0690 
     96 H96        24.0298   27.7817   -0.8587 H         1 UNK         0.0788 
     97 H97        22.6221   27.4543    0.1433 H         1 UNK         0.0788 
     98 H98        22.5809   27.0848   -1.5727 H         1 UNK         0.0788 
     99 H99        25.2681   25.8955   -1.8243 H         1 UNK         0.2993 
    100 H100       26.2057   22.5967   -2.6927 H         1 UNK         0.0949 
    101 H101       26.5214   23.7231   -4.8887 H         1 UNK         0.0767 
    102 H102       24.8160   23.4092   -4.6084 H         1 UNK         0.0767 
    103 H103       25.4512   25.0367   -4.4013 H         1 UNK         0.0767 
    104 H104       27.3346   25.3042   -2.8159 H         1 UNK         0.3013 
    105 H105       27.0960   27.0349    1.5256 H         1 UNK         0.3121 
    106 H106       27.6507   29.8774    1.5507 H         1 UNK         0.0774 
    107 H107       26.6447   29.8162   -0.7053 H         1 UNK         0.0815 
    108 H108       26.6991   28.0600   -0.7187 H         1 UNK         0.0815 
    109 H109       25.6648   28.9103    0.4324 H         1 UNK         0.0815 
    110 H110       30.0422   28.5809    2.0189 H         1 UNK         0.2987 
    111 H111       31.7426   28.7000   -0.4072 H         1 UNK         0.0949 
    112 H112       33.5168   27.9474    1.2157 H         1 UNK         0.0806 
    113 H113       32.3671   28.0526    2.5389 H         1 UNK         0.0806 
    114 H114       32.1425   26.8655    1.2588 H         1 UNK         0.0806 
    115 H115       33.8558   29.9490   -0.0320 H         1 UNK         0.3010 
    116 H116       33.4422   32.7163    0.2154 H         1 UNK         0.0829 
    117 H117       35.3190   31.7289   -1.0627 H         1 UNK         0.0813 
    118 H118       35.9464   32.8215    0.1601 H         1 UNK         0.0813 
    119 H119       36.0329   31.0850    0.4167 H         1 UNK         0.0813 
    120 H120       32.8620   33.7695    1.9824 H         1 UNK         0.3038 
    121 H121       32.4780   34.4453    4.0528 H         1 UNK         0.0769 
    122 H122       34.3894   34.7256    5.5914 H         1 UNK         0.0811 
    123 H123       34.9049   35.0972    3.9559 H         1 UNK         0.0811 
    124 H124       35.3427   33.5556    4.6916 H         1 UNK         0.0811 
    125 H125       31.8015   31.6552    3.3769 H         1 UNK         0.3204 
    126 H126       31.1230   29.7255    4.1510 H         1 UNK         0.0748 
    127 H127       29.9621   29.6257    6.3295 H         1 UNK         0.0771 
    128 H128       30.7508   31.1049    6.8646 H         1 UNK         0.0771 
    129 H129       29.5899   31.1431    5.5354 H         1 UNK         0.0771 
    130 H130       34.0040   30.2779    4.2501 H         1 UNK         0.2980 
    131 H131       35.9122   29.4176    4.8155 H         1 UNK         0.0545 
    132 H132       35.3904   31.1530    8.2278 H         1 UNK         0.3459 
    133 H133       34.3319   31.2616    6.8419 H         1 UNK         0.3459 
    134 H134       36.1833   27.1545    5.8421 H         1 UNK         0.0616 
    135 H135       34.4725   27.0848    6.1688 H         1 UNK         0.0616 
    136 H136       35.1526   24.8300    5.1815 H         1 UNK         0.0634 
    137 H137       35.2973   24.4775    3.4834 H         1 UNK         0.0634 
@<TRIPOS>BOND
     1    1    2 1    
     2    1   72 1    
     3    1   73 1    
     4    1   74 1    
     5    2    3 2    
     6    2    4 am   BACKBONE|DICT|INTERRES
     7    4    5 1    
     8    4   75 1    
     9    5    6 1    
    10    5   35 1    
    11    5   76 1    
    12    6    7 1    
    13    6   77 1    
    14    6   78 1    
    15    7    8 1    
    16    8    9 1    
    17    8   79 1    
    18    8   80 1    
    19    9   10 ar   
    20    9   14 ar   
    21   10   11 ar   
    22   10   81 1    
    23   11   12 ar   
    24   11   71 1    
    25   12   13 ar   
    26   12   82 1    
    27   13   14 ar   
    28   13   15 1    
    29   14   83 1    
    30   15   16 1    
    31   15   84 1    
    32   15   85 1    
    33   16   17 1    
    34   17   18 1    
    35   17   86 1    
    36   17   87 1    
    37   18   19 1    
    38   18   37 1    
    39   18   88 1    
    40   19   20 am   BACKBONE|DICT|INTERRES
    41   19   89 1    
    42   20   21 2    
    43   20   22 1    
    44   22   23 1    
    45   22   24 1    
    46   22   90 1    
    47   23   91 1    
    48   23   92 1    
    49   23   93 1    
    50   24   25 am   BACKBONE|DICT|INTERRES
    51   24   94 1    
    52   25   26 2    
    53   25   27 1    
    54   27   28 1    
    55   27   29 1    
    56   27   95 1    
    57   28   96 1    
    58   28   97 1    
    59   28   98 1    
    60   29   30 am   BACKBONE|DICT|INTERRES
    61   29   99 1    
    62   30   31 2    
    63   30   32 1    
    64   32   33 1    
    65   32   34 1    
    66   32  100 1    
    67   33  101 1    
    68   33  102 1    
    69   33  103 1    
    70   34   35 am   BACKBONE|DICT|INTERRES
    71   34  104 1    
    72   35   36 2    
    73   37   38 2    
    74   37   39 am   BACKBONE|DICT|INTERRES
    75   39   40 1    
    76   39  105 1    
    77   40   41 1    
    78   40   42 1    
    79   40  106 1    
    80   41  107 1    
    81   41  108 1    
    82   41  109 1    
    83   42   43 2    
    84   42   44 am   BACKBONE|DICT|INTERRES
    85   44   45 1    
    86   44  110 1    
    87   45   46 1    
    88   45   47 1    
    89   45  111 1    
    90   46  112 1    
    91   46  113 1    
    92   46  114 1    
    93   47   48 2    
    94   47   49 am   BACKBONE|DICT|INTERRES
    95   49   50 1    
    96   49  115 1    
    97   50   51 1    
    98   50   52 1    
    99   50  116 1    
   100   51  117 1    
   101   51  118 1    
   102   51  119 1    
   103   52   53 2    
   104   52   54 am   BACKBONE|DICT|INTERRES
   105   54   55 1    
   106   54  120 1    
   107   55   56 1    
   108   55   57 1    
   109   55  121 1    
   110   56  122 1    
   111   56  123 1    
   112   56  124 1    
   113   57   58 2    
   114   57   59 am   BACKBONE|DICT|INTERRES
   115   59   60 1    
   116   59  125 1    
   117   60   61 1    
   118   60   62 1    
   119   60  126 1    
   120   61  127 1    
   121   61  128 1    
   122   61  129 1    
   123   62   63 2    
   124   62   64 am   BACKBONE|DICT|INTERRES
   125   64   65 1    
   126   64  130 1    
   127   65   66 1    
   128   65   69 1    
   129   65  131 1    
   130   66   67 am   BACKBONE|DICT|INTERRES
   131   66   68 2    
   132   67  132 1    
   133   67  133 1    
   134   69   70 1    
   135   69  134 1    
   136   69  135 1    
   137   70   71 1    
   138   71  136 1    
   139   71  137 1    
@<TRIPOS>SUBSTRUCTURE
     1 UNK         1 GROUP             0       ****    0 ROOT    
