@<TRIPOS>MOLECULE
3R136
137   139    1
SMALL
USER_CHARGES


@<TRIPOS>ATOM
      1 CA         24.9155   26.2342    6.8800 C.3       0 UNK        -0.1979 
      2 C          25.4356   25.3421    5.7621 C.2       0 UNK         0.4864 
      3 O          24.9354   24.2289    5.5919 O.2       0 UNK        -0.5359 
      4 N          26.4391   25.8139    5.0104 N.am      1 UNK        -0.4318 
      5 CA         27.0430   25.1167    3.8681 C.3       1 UNK         0.0824 
      6 C6         28.2856   25.8649    3.3270 C.3       12 UNK        -0.0944 
      7 S7         29.6361   25.8995    4.5483 S.3       12 UNK        -0.2672 
      8 C8         31.0133   25.1307    3.6254 C.3       12 UNK         0.0333 
      9 C9         31.7859   26.0443    2.6664 C.ar      12 UNK        -0.0807 
     10 C10        32.9844   25.5609    2.1301 C.ar      12 UNK        -0.0894 
     11 C11        33.7461   26.3372    1.2524 C.ar      12 UNK        -0.0804 
     12 C12        33.3085   27.6196    0.9158 C.ar      12 UNK        -0.0824 
     13 C13        32.1093   28.1198    1.4298 C.ar      12 UNK        -0.0762 
     14 C14        31.3522   27.3283    2.3013 C.ar      12 UNK        -0.0782 
     15 C15        31.6359   29.5202    1.0542 C.3       12 UNK         0.0230 
     16 S16        31.5344   29.7796   -0.7499 S.3       12 UNK        -0.2608 
     17 C17        30.2121   28.6120   -1.2172 C.3       12 UNK        -0.0989 
     18 CA         29.0493   29.2769   -2.0111 C.3       5 UNK         0.0716 
     19 N          28.3158   28.2892   -2.7910 N.am      5 UNK        -0.4135 
     20 C          28.7078   27.6929   -3.9171 C.2       4 UNK         0.5031 
     21 O          29.7407   27.9791   -4.5254 O.2       4 UNK        -0.5229 
     22 CA         27.8152   26.5296   -4.3941 C.3       4 UNK         0.0329 
     23 CB         28.1217   26.1044   -5.8422 C.3       4 UNK        -0.2001 
     24 N          27.9743   25.3694   -3.5104 N.am      4 UNK        -0.4303 
     25 C          27.4769   25.2686   -2.2698 C.2       3 UNK         0.5044 
     26 O          26.7312   26.1111   -1.7630 O.2       3 UNK        -0.5152 
     27 CA         27.9554   24.0587   -1.4464 C.3       3 UNK         0.0319 
     28 CB         29.4027   24.2828   -0.9692 C.3       3 UNK        -0.2001 
     29 N          27.1211   23.8057   -0.2702 N.am      3 UNK        -0.4354 
     30 C          25.8393   23.4122   -0.2816 C.2       2 UNK         0.4964 
     31 O          25.2162   23.1494   -1.3116 O.2       2 UNK        -0.5047 
     32 CA         25.1359   23.2536    1.0817 C.3       2 UNK         0.0288 
     33 CB         24.6968   21.7945    1.2991 C.3       2 UNK        -0.2113 
     34 N          25.9779   23.6614    2.2126 N.am      2 UNK        -0.4145 
     35 C          26.0216   24.8957    2.7333 C.2       1 UNK         0.5006 
     36 O          25.3305   25.8379    2.3384 O.2       1 UNK        -0.5103 
     37 C          28.0311   29.9885   -1.0974 C.2       5 UNK         0.5055 
     38 O          26.8250   29.7369   -1.1930 O.2       5 UNK        -0.5220 
     39 N          28.5357   30.8467   -0.2050 N.am      6 UNK        -0.4450 
     40 CA         27.8034   31.3701    0.9492 C.3       6 UNK         0.0367 
     41 CB         28.6376   32.4902    1.5946 C.3       6 UNK        -0.1929 
     42 C          27.5217   30.2559    1.9755 C.2       6 UNK         0.5070 
     43 O          28.1872   29.2195    1.9589 O.2       6 UNK        -0.5237 
     44 N          26.5653   30.5007    2.8798 N.am      7 UNK        -0.4739 
     45 CA         26.2263   29.5749    3.9671 C.3       7 UNK         0.0276 
     46 CB         24.8884   29.9921    4.5980 C.3       7 UNK        -0.1927 
     47 C          27.3209   29.4691    5.0461 C.2       7 UNK         0.5013 
     48 O          27.3808   28.4504    5.7344 O.2       7 UNK        -0.5193 
     49 N          28.1488   30.5142    5.1827 N.am      8 UNK        -0.4253 
     50 CA         29.2932   30.5589    6.0909 C.3       8 UNK         0.0242 
     51 CB         29.7267   32.0207    6.2876 C.3       8 UNK        -0.2000 
     52 C          30.4582   29.7239    5.5399 C.2       8 UNK         0.4948 
     53 O          30.8062   29.8653    4.3649 O.2       8 UNK        -0.5275 
     54 N          31.0645   28.9033    6.4059 N.am      9 UNK        -0.4246 
     55 CA         32.1772   28.0090    6.0837 C.3       9 UNK         0.0261 
     56 CB         32.2549   26.8978    7.1473 C.3       9 UNK        -0.1959 
     57 C          33.5062   28.7647    5.9264 C.2       9 UNK         0.5033 
     58 O          34.3852   28.6500    6.7830 O.2       9 UNK        -0.5390 
     59 N          33.6369   29.5154    4.8247 N.am      10 UNK        -0.4215 
     60 CA         34.8309   30.2894    4.4594 C.3       10 UNK         0.0240 
     61 CB         34.5673   31.0557    3.1544 C.3       10 UNK        -0.1982 
     62 C          36.1110   29.4424    4.3273 C.2       10 UNK         0.4970 
     63 O          37.1984   29.9487    4.6068 O.2       10 UNK        -0.4916 
     64 N          35.9548   28.1734    3.9298 N.am      11 UNK        -0.4279 
     65 CA         37.0247   27.1663    3.8922 C.3       11 UNK         0.1003 
     66 C          37.4231   26.5960    5.2870 C.2       11 UNK         0.5709 
     67 N          36.7433   26.9283    6.3791 N.am      11 UNK        -0.7358 
     68 O          38.3858   25.8383    5.3831 O.2       11 UNK        -0.4999 
     69 C69        36.6998   26.0276    2.8905 C.3       12 UNK        -0.0954 
     70 S70        36.5166   26.6430    1.1832 S.3       12 UNK        -0.2268 
     71 C71        35.0162   25.7761    0.6273 C.3       12 UNK         0.0203 
     72 H72        23.9045   26.5699    6.6513 H         1 UNK         0.0888 
     73 H73        24.8880   25.6823    7.8192 H         1 UNK         0.0888 
     74 H74        25.5408   27.1136    7.0271 H         1 UNK         0.0888 
     75 H75        26.8326   26.7280    5.2251 H         1 UNK         0.3017 
     76 H76        27.3656   24.1377    4.2295 H         1 UNK         0.0873 
     77 H77        28.0291   26.8928    3.0699 H         1 UNK         0.0745 
     78 H78        28.6511   25.4068    2.4062 H         1 UNK         0.0745 
     79 H79        30.6425   24.2635    3.0773 H         1 UNK         0.0705 
     80 H80        31.7147   24.7434    4.3660 H         1 UNK         0.0705 
     81 H81        33.3218   24.5668    2.3909 H         1 UNK         0.1334 
     82 H82        33.8955   28.2237    0.2372 H         1 UNK         0.1417 
     83 H83        30.4288   27.7297    2.6965 H         1 UNK         0.1562 
     84 H84        30.6681   29.7352    1.5054 H         1 UNK         0.0748 
     85 H85        32.3247   30.2525    1.4716 H         1 UNK         0.0748 
     86 H86        29.8323   28.0861   -0.3380 H         1 UNK         0.0940 
     87 H87        30.6946   27.8435   -1.8229 H         1 UNK         0.0940 
     88 H88        29.4492   30.0206   -2.7036 H         1 UNK         0.0703 
     89 H89        27.4503   27.9827   -2.3537 H         1 UNK         0.3081 
     90 H90        26.7765   26.8656   -4.3562 H         1 UNK         0.0719 
     91 H91        28.0102   26.9464   -6.5266 H         1 UNK         0.0809 
     92 H92        29.1405   25.7299   -5.9496 H         1 UNK         0.0809 
     93 H93        27.4400   25.3229   -6.1784 H         1 UNK         0.0809 
     94 H94        28.6024   24.6482   -3.8354 H         1 UNK         0.2990 
     95 H95        27.9212   23.1726   -2.0837 H         1 UNK         0.0690 
     96 H96        29.7732   23.4267   -0.4048 H         1 UNK         0.0788 
     97 H97        29.4867   25.1653   -0.3325 H         1 UNK         0.0788 
     98 H98        30.0812   24.4268   -1.8110 H         1 UNK         0.0788 
     99 H99        27.5361   24.0173    0.6228 H         1 UNK         0.2993 
    100 H100       24.2395   23.8774    1.0533 H         1 UNK         0.0949 
    101 H101       25.5483   21.1129    1.3104 H         1 UNK         0.0767 
    102 H102       24.1605   21.6787    2.2414 H         1 UNK         0.0767 
    103 H103       24.0253   21.4641    0.5052 H         1 UNK         0.0767 
    104 H104       26.5673   22.9428    2.6096 H         1 UNK         0.3013 
    105 H105       29.5412   30.9513   -0.1853 H         1 UNK         0.3121 
    106 H106       26.8525   31.7808    0.6031 H         1 UNK         0.0774 
    107 H107       28.0989   32.9575    2.4196 H         1 UNK         0.0815 
    108 H108       29.5803   32.1127    1.9942 H         1 UNK         0.0815 
    109 H109       28.8685   33.2776    0.8768 H         1 UNK         0.0815 
    110 H110       26.0508   31.3693    2.8366 H         1 UNK         0.2987 
    111 H111       26.1009   28.5785    3.5356 H         1 UNK         0.0949 
    112 H112       24.0845   29.9895    3.8617 H         1 UNK         0.0806 
    113 H113       24.5996   29.3009    5.3912 H         1 UNK         0.0806 
    114 H114       24.9410   30.9890    5.0375 H         1 UNK         0.0806 
    115 H115       28.0497   31.2835    4.5386 H         1 UNK         0.3010 
    116 H116       28.9832   30.1551    7.0574 H         1 UNK         0.0829 
    117 H117       30.0406   32.4789    5.3485 H         1 UNK         0.0813 
    118 H118       30.5676   32.0884    6.9792 H         1 UNK         0.0813 
    119 H119       28.9179   32.6231    6.7019 H         1 UNK         0.0813 
    120 H120       30.7369   28.8784    7.3606 H         1 UNK         0.3038 
    121 H121       31.9719   27.5327    5.1253 H         1 UNK         0.0769 
    122 H122       31.3317   26.3192    7.1836 H         1 UNK         0.0811 
    123 H123       32.4388   27.3010    8.1439 H         1 UNK         0.0811 
    124 H124       33.0628   26.2000    6.9226 H         1 UNK         0.0811 
    125 H125       32.8158   29.6093    4.2331 H         1 UNK         0.3204 
    126 H126       34.9987   31.0158    5.2571 H         1 UNK         0.0748 
    127 H127       34.4716   30.3778    2.3057 H         1 UNK         0.0771 
    128 H128       33.6599   31.6570    3.2173 H         1 UNK         0.0771 
    129 H129       35.3911   31.7352    2.9316 H         1 UNK         0.0771 
    130 H130       35.0284   27.8462    3.7016 H         1 UNK         0.2980 
    131 H131       37.9239   27.6647    3.5250 H         1 UNK         0.0545 
    132 H132       37.0324   26.5457    7.2648 H         1 UNK         0.3459 
    133 H133       35.9567   27.5689    6.3467 H         1 UNK         0.3459 
    134 H134       35.7953   25.5006    3.1980 H         1 UNK         0.0616 
    135 H135       37.4974   25.2825    2.8778 H         1 UNK         0.0616 
    136 H136       35.1196   24.7098    0.8344 H         1 UNK         0.0634 
    137 H137       34.9439   25.8692   -0.4572 H         1 UNK         0.0634 
@<TRIPOS>BOND
     1    1    2 1    
     2    1   72 1    
     3    1   73 1    
     4    1   74 1    
     5    2    3 2    
     6    2    4 am   BACKBONE|DICT|INTERRES
     7    4    5 1    
     8    4   75 1    
     9    5    6 1    
    10    5   35 1    
    11    5   76 1    
    12    6    7 1    
    13    6   77 1    
    14    6   78 1    
    15    7    8 1    
    16    8    9 1    
    17    8   79 1    
    18    8   80 1    
    19    9   10 ar   
    20    9   14 ar   
    21   10   11 ar   
    22   10   81 1    
    23   11   12 ar   
    24   11   71 1    
    25   12   13 ar   
    26   12   82 1    
    27   13   14 ar   
    28   13   15 1    
    29   14   83 1    
    30   15   16 1    
    31   15   84 1    
    32   15   85 1    
    33   16   17 1    
    34   17   18 1    
    35   17   86 1    
    36   17   87 1    
    37   18   19 1    
    38   18   37 1    
    39   18   88 1    
    40   19   20 am   BACKBONE|DICT|INTERRES
    41   19   89 1    
    42   20   21 2    
    43   20   22 1    
    44   22   23 1    
    45   22   24 1    
    46   22   90 1    
    47   23   91 1    
    48   23   92 1    
    49   23   93 1    
    50   24   25 am   BACKBONE|DICT|INTERRES
    51   24   94 1    
    52   25   26 2    
    53   25   27 1    
    54   27   28 1    
    55   27   29 1    
    56   27   95 1    
    57   28   96 1    
    58   28   97 1    
    59   28   98 1    
    60   29   30 am   BACKBONE|DICT|INTERRES
    61   29   99 1    
    62   30   31 2    
    63   30   32 1    
    64   32   33 1    
    65   32   34 1    
    66   32  100 1    
    67   33  101 1    
    68   33  102 1    
    69   33  103 1    
    70   34   35 am   BACKBONE|DICT|INTERRES
    71   34  104 1    
    72   35   36 2    
    73   37   38 2    
    74   37   39 am   BACKBONE|DICT|INTERRES
    75   39   40 1    
    76   39  105 1    
    77   40   41 1    
    78   40   42 1    
    79   40  106 1    
    80   41  107 1    
    81   41  108 1    
    82   41  109 1    
    83   42   43 2    
    84   42   44 am   BACKBONE|DICT|INTERRES
    85   44   45 1    
    86   44  110 1    
    87   45   46 1    
    88   45   47 1    
    89   45  111 1    
    90   46  112 1    
    91   46  113 1    
    92   46  114 1    
    93   47   48 2    
    94   47   49 am   BACKBONE|DICT|INTERRES
    95   49   50 1    
    96   49  115 1    
    97   50   51 1    
    98   50   52 1    
    99   50  116 1    
   100   51  117 1    
   101   51  118 1    
   102   51  119 1    
   103   52   53 2    
   104   52   54 am   BACKBONE|DICT|INTERRES
   105   54   55 1    
   106   54  120 1    
   107   55   56 1    
   108   55   57 1    
   109   55  121 1    
   110   56  122 1    
   111   56  123 1    
   112   56  124 1    
   113   57   58 2    
   114   57   59 am   BACKBONE|DICT|INTERRES
   115   59   60 1    
   116   59  125 1    
   117   60   61 1    
   118   60   62 1    
   119   60  126 1    
   120   61  127 1    
   121   61  128 1    
   122   61  129 1    
   123   62   63 2    
   124   62   64 am   BACKBONE|DICT|INTERRES
   125   64   65 1    
   126   64  130 1    
   127   65   66 1    
   128   65   69 1    
   129   65  131 1    
   130   66   67 am   BACKBONE|DICT|INTERRES
   131   66   68 2    
   132   67  132 1    
   133   67  133 1    
   134   69   70 1    
   135   69  134 1    
   136   69  135 1    
   137   70   71 1    
   138   71  136 1    
   139   71  137 1    
@<TRIPOS>SUBSTRUCTURE
     1 UNK         1 GROUP             0       ****    0 ROOT    
