@<TRIPOS>MOLECULE
3R136
137   139    1
SMALL
USER_CHARGES


@<TRIPOS>ATOM
      1 CA         30.0019   23.0605   -4.2931 C.3       0 UNK        -0.1979 
      2 C          30.7079   22.6352   -3.0074 C.2       0 UNK         0.4864 
      3 O          31.3911   21.6127   -3.0082 O.2       0 UNK        -0.5359 
      4 N          30.5882   23.3721   -1.8920 N.am      1 UNK        -0.4318 
      5 CA         29.7881   24.5916   -1.7033 C.3       1 UNK         0.0824 
      6 C6         30.1219   25.3141   -0.3729 C.3       12 UNK        -0.0944 
      7 S7         31.8809   25.7760   -0.2187 S.3       12 UNK        -0.2672 
      8 C8         32.5550   24.4592    0.8473 C.3       12 UNK         0.0333 
      9 C9         32.1369   24.6052    2.3047 C.ar      12 UNK        -0.0807 
     10 C10        32.8947   25.3916    3.1792 C.ar      12 UNK        -0.0894 
     11 C11        32.5484   25.4878    4.5314 C.ar      12 UNK        -0.0804 
     12 C12        31.4249   24.8019    5.0015 C.ar      12 UNK        -0.0824 
     13 C13        30.6539   24.0215    4.1359 C.ar      12 UNK        -0.0762 
     14 C14        31.0224   23.9156    2.7926 C.ar      12 UNK        -0.0782 
     15 C15        29.4370   23.2763    4.6613 C.3       12 UNK         0.0230 
     16 S16        28.0519   24.4051    5.0026 S.3       12 UNK        -0.2608 
     17 C17        27.5370   24.9175    3.3219 C.3       12 UNK        -0.0989 
     18 CA         27.9584   26.3388    2.8445 C.3       5 UNK         0.0716 
     19 N          27.2520   26.6804    1.5949 N.am      5 UNK        -0.4135 
     20 C          27.2743   27.8582    0.9439 C.2       4 UNK         0.5031 
     21 O          27.9247   28.8297    1.3211 O.2       4 UNK        -0.5229 
     22 CA         26.4219   28.0197   -0.3284 C.3       4 UNK         0.0329 
     23 CB         27.3039   28.3749   -1.5378 C.3       4 UNK        -0.2001 
     24 N          25.5933   26.8529   -0.6412 N.am      4 UNK        -0.4303 
     25 C          24.4331   26.5672   -0.0290 C.2       3 UNK         0.5044 
     26 O          23.9416   27.2728    0.8525 O.2       3 UNK        -0.5152 
     27 CA         23.7033   25.2715   -0.4370 C.3       3 UNK         0.0319 
     28 CB         22.5629   25.5862   -1.4183 C.3       3 UNK        -0.2001 
     29 N          24.5702   24.2444   -1.0232 N.am      3 UNK        -0.4354 
     30 C          25.6038   23.6605   -0.4021 C.2       2 UNK         0.4964 
     31 O          25.9359   23.9217    0.7549 O.2       2 UNK        -0.5047 
     32 CA         26.4575   22.6676   -1.2153 C.3       2 UNK         0.0288 
     33 CB         25.9036   22.3504   -2.6243 C.3       2 UNK        -0.2113 
     34 N          27.8491   23.1263   -1.3054 N.am      2 UNK        -0.4145 
     35 C          28.2727   24.3133   -1.7715 C.2       1 UNK         0.5006 
     36 O          27.5254   25.1702   -2.2446 O.2       1 UNK        -0.5103 
     37 C          27.8068   27.4177    3.9457 C.2       5 UNK         0.5055 
     38 O          28.7896   27.7689    4.5993 O.2       5 UNK        -0.5220 
     39 N          26.5899   27.9625    4.0886 N.am      6 UNK        -0.4450 
     40 CA         26.2400   29.0110    5.0506 C.3       6 UNK         0.0367 
     41 CB         24.7122   29.1875    5.0504 C.3       6 UNK        -0.1929 
     42 C          26.9355   30.3702    4.8245 C.2       6 UNK         0.5070 
     43 O          26.9227   31.1946    5.7396 O.2       6 UNK        -0.5237 
     44 N          27.5079   30.6007    3.6354 N.am      7 UNK        -0.4739 
     45 CA         28.1745   31.8482    3.2544 C.3       7 UNK         0.0276 
     46 CB         27.1937   32.7103    2.4363 C.3       7 UNK        -0.1927 
     47 C          29.4910   31.5848    2.5015 C.2       7 UNK         0.5013 
     48 O          29.9317   32.4457    1.7368 O.2       7 UNK        -0.5193 
     49 N          30.0926   30.4045    2.7062 N.am      8 UNK        -0.4253 
     50 CA         31.3230   29.9758    2.0427 C.3       8 UNK         0.0242 
     51 CB         31.5267   28.4727    2.2800 C.3       8 UNK        -0.2000 
     52 C          32.5328   30.7734    2.5472 C.2       8 UNK         0.4948 
     53 O          32.7209   30.8854    3.7595 O.2       8 UNK        -0.5275 
     54 N          33.3585   31.2781    1.6203 N.am      9 UNK        -0.4246 
     55 CA         34.5241   32.1306    1.9008 C.3       9 UNK         0.0261 
     56 CB         35.1401   32.5942    0.5705 C.3       9 UNK        -0.1959 
     57 C          35.6020   31.4879    2.7959 C.2       9 UNK         0.5033 
     58 O          36.3785   32.2117    3.4206 O.2       9 UNK        -0.5390 
     59 N          35.6226   30.1507    2.8522 N.am      10 UNK        -0.4215 
     60 CA         36.4980   29.3549    3.7099 C.3       10 UNK         0.0240 
     61 CB         36.5464   27.9176    3.1642 C.3       10 UNK        -0.1982 
     62 C          36.1014   29.3585    5.2005 C.2       10 UNK         0.4970 
     63 O          36.9258   28.9419    6.0160 O.2       10 UNK        -0.4916 
     64 N          34.8801   29.7939    5.5452 N.am      11 UNK        -0.4279 
     65 CA         34.3636   29.7668    6.9255 C.3       11 UNK         0.1003 
     66 C          33.4058   30.9291    7.3079 C.2       11 UNK         0.5709 
     67 N          32.8562   31.6951    6.3763 N.am      11 UNK        -0.7358 
     68 O          33.1830   31.1674    8.4931 O.2       11 UNK        -0.4999 
     69 C69        33.8050   28.3732    7.3264 C.3       12 UNK        -0.0954 
     70 S70        32.5332   27.7264    6.1839 S.3       12 UNK        -0.2268 
     71 C71        33.4103   26.2868    5.4988 C.3       12 UNK         0.0203 
     72 H72        30.1249   24.1245   -4.4900 H         1 UNK         0.0888 
     73 H73        30.4159   22.5238   -5.1466 H         1 UNK         0.0888 
     74 H74        28.9380   22.8309   -4.2425 H         1 UNK         0.0888 
     75 H75        31.1029   23.0719   -1.0784 H         1 UNK         0.3017 
     76 H76        30.0275   25.2809   -2.5150 H         1 UNK         0.0873 
     77 H77        29.5525   26.2419   -0.2995 H         1 UNK         0.0745 
     78 H78        29.8145   24.7161    0.4833 H         1 UNK         0.0745 
     79 H79        33.6436   24.4876    0.7796 H         1 UNK         0.0705 
     80 H80        32.2603   23.4824    0.4631 H         1 UNK         0.0705 
     81 H81        33.7652   25.9125    2.8067 H         1 UNK         0.1334 
     82 H82        31.1495   24.8768    6.0448 H         1 UNK         0.1417 
     83 H83        30.4443   23.2866    2.1306 H         1 UNK         0.1562 
     84 H84        29.7043   22.7601    5.5846 H         1 UNK         0.0748 
     85 H85        29.1149   22.5020    3.9632 H         1 UNK         0.0748 
     86 H86        26.4482   24.8403    3.3070 H         1 UNK         0.0940 
     87 H87        27.8859   24.1748    2.6032 H         1 UNK         0.0940 
     88 H88        29.0214   26.3006    2.5994 H         1 UNK         0.0703 
     89 H89        26.6857   25.9380    1.2021 H         1 UNK         0.3081 
     90 H90        25.7577   28.8688   -0.1528 H         1 UNK         0.0719 
     91 H91        28.0765   27.6283   -1.7157 H         1 UNK         0.0809 
     92 H92        26.7130   28.4728   -2.4485 H         1 UNK         0.0809 
     93 H93        27.8120   29.3272   -1.3795 H         1 UNK         0.0809 
     94 H94        25.9625   26.2095   -1.3343 H         1 UNK         0.2990 
     95 H95        23.2660   24.8505    0.4709 H         1 UNK         0.0690 
     96 H96        22.9400   25.9869   -2.3602 H         1 UNK         0.0788 
     97 H97        21.8800   26.3269   -0.9993 H         1 UNK         0.0788 
     98 H98        21.9736   24.6967   -1.6421 H         1 UNK         0.0788 
     99 H99        24.3902   23.9929   -1.9846 H         1 UNK         0.2993 
    100 H100       26.4666   21.7385   -0.6430 H         1 UNK         0.0949 
    101 H101       25.8759   23.2297   -3.2690 H         1 UNK         0.0767 
    102 H102       26.5203   21.6022   -3.1227 H         1 UNK         0.0767 
    103 H103       24.8938   21.9409   -2.5704 H         1 UNK         0.0767 
    104 H104       28.5408   22.4971   -0.9228 H         1 UNK         0.3013 
    105 H105       25.8470   27.6359    3.4873 H         1 UNK         0.3121 
    106 H106       26.5430   28.6612    6.0398 H         1 UNK         0.0774 
    107 H107       24.4042   29.9363    5.7818 H         1 UNK         0.0815 
    108 H108       24.3448   29.5138    4.0765 H         1 UNK         0.0815 
    109 H109       24.2035   28.2588    5.3094 H         1 UNK         0.0815 
    110 H110       27.5127   29.8692    2.9279 H         1 UNK         0.2987 
    111 H111       28.4573   32.4074    4.1489 H         1 UNK         0.0949 
    112 H112       26.9142   32.2190    1.5035 H         1 UNK         0.0806 
    113 H113       26.2806   32.9117    2.9966 H         1 UNK         0.0806 
    114 H114       27.6326   33.6756    2.1811 H         1 UNK         0.0806 
    115 H115       29.6803   29.7561    3.3635 H         1 UNK         0.3010 
    116 H116       31.2044   30.1410    0.9697 H         1 UNK         0.0829 
    117 H117       32.4489   28.1209    1.8168 H         1 UNK         0.0813 
    118 H118       31.5812   28.2345    3.3429 H         1 UNK         0.0813 
    119 H119       30.7097   27.8924    1.8516 H         1 UNK         0.0813 
    120 H120       33.1374   31.1305    0.6456 H         1 UNK         0.3038 
    121 H121       34.1575   33.0115    2.4319 H         1 UNK         0.0769 
    122 H122       35.9915   33.2544    0.7428 H         1 UNK         0.0811 
    123 H123       34.4198   33.1508   -0.0294 H         1 UNK         0.0811 
    124 H124       35.4965   31.7525   -0.0246 H         1 UNK         0.0811 
    125 H125       34.9457   29.6470    2.2987 H         1 UNK         0.3204 
    126 H126       37.5053   29.7727    3.6489 H         1 UNK         0.0748 
    127 H127       37.1823   27.2816    3.7820 H         1 UNK         0.0771 
    128 H128       35.5565   27.4634    3.1373 H         1 UNK         0.0771 
    129 H129       36.9534   27.8921    2.1531 H         1 UNK         0.0771 
    130 H130       34.2370   30.1303    4.8367 H         1 UNK         0.2980 
    131 H131       35.2184   29.9494    7.5798 H         1 UNK         0.0545 
    132 H132       32.9134   31.4545    5.3882 H         1 UNK         0.3459 
    133 H133       32.2580   32.4513    6.6656 H         1 UNK         0.3459 
    134 H134       34.6302   27.6620    7.3829 H         1 UNK         0.0616 
    135 H135       33.3822   28.3975    8.3322 H         1 UNK         0.0616 
    136 H136       33.7192   25.6337    6.3163 H         1 UNK         0.0634 
    137 H137       34.3247   26.6282    5.0133 H         1 UNK         0.0634 
@<TRIPOS>BOND
     1    1    2 1    
     2    1   72 1    
     3    1   73 1    
     4    1   74 1    
     5    2    3 2    
     6    2    4 am   BACKBONE|DICT|INTERRES
     7    4    5 1    
     8    4   75 1    
     9    5    6 1    
    10    5   35 1    
    11    5   76 1    
    12    6    7 1    
    13    6   77 1    
    14    6   78 1    
    15    7    8 1    
    16    8    9 1    
    17    8   79 1    
    18    8   80 1    
    19    9   10 ar   
    20    9   14 ar   
    21   10   11 ar   
    22   10   81 1    
    23   11   12 ar   
    24   11   71 1    
    25   12   13 ar   
    26   12   82 1    
    27   13   14 ar   
    28   13   15 1    
    29   14   83 1    
    30   15   16 1    
    31   15   84 1    
    32   15   85 1    
    33   16   17 1    
    34   17   18 1    
    35   17   86 1    
    36   17   87 1    
    37   18   19 1    
    38   18   37 1    
    39   18   88 1    
    40   19   20 am   BACKBONE|DICT|INTERRES
    41   19   89 1    
    42   20   21 2    
    43   20   22 1    
    44   22   23 1    
    45   22   24 1    
    46   22   90 1    
    47   23   91 1    
    48   23   92 1    
    49   23   93 1    
    50   24   25 am   BACKBONE|DICT|INTERRES
    51   24   94 1    
    52   25   26 2    
    53   25   27 1    
    54   27   28 1    
    55   27   29 1    
    56   27   95 1    
    57   28   96 1    
    58   28   97 1    
    59   28   98 1    
    60   29   30 am   BACKBONE|DICT|INTERRES
    61   29   99 1    
    62   30   31 2    
    63   30   32 1    
    64   32   33 1    
    65   32   34 1    
    66   32  100 1    
    67   33  101 1    
    68   33  102 1    
    69   33  103 1    
    70   34   35 am   BACKBONE|DICT|INTERRES
    71   34  104 1    
    72   35   36 2    
    73   37   38 2    
    74   37   39 am   BACKBONE|DICT|INTERRES
    75   39   40 1    
    76   39  105 1    
    77   40   41 1    
    78   40   42 1    
    79   40  106 1    
    80   41  107 1    
    81   41  108 1    
    82   41  109 1    
    83   42   43 2    
    84   42   44 am   BACKBONE|DICT|INTERRES
    85   44   45 1    
    86   44  110 1    
    87   45   46 1    
    88   45   47 1    
    89   45  111 1    
    90   46  112 1    
    91   46  113 1    
    92   46  114 1    
    93   47   48 2    
    94   47   49 am   BACKBONE|DICT|INTERRES
    95   49   50 1    
    96   49  115 1    
    97   50   51 1    
    98   50   52 1    
    99   50  116 1    
   100   51  117 1    
   101   51  118 1    
   102   51  119 1    
   103   52   53 2    
   104   52   54 am   BACKBONE|DICT|INTERRES
   105   54   55 1    
   106   54  120 1    
   107   55   56 1    
   108   55   57 1    
   109   55  121 1    
   110   56  122 1    
   111   56  123 1    
   112   56  124 1    
   113   57   58 2    
   114   57   59 am   BACKBONE|DICT|INTERRES
   115   59   60 1    
   116   59  125 1    
   117   60   61 1    
   118   60   62 1    
   119   60  126 1    
   120   61  127 1    
   121   61  128 1    
   122   61  129 1    
   123   62   63 2    
   124   62   64 am   BACKBONE|DICT|INTERRES
   125   64   65 1    
   126   64  130 1    
   127   65   66 1    
   128   65   69 1    
   129   65  131 1    
   130   66   67 am   BACKBONE|DICT|INTERRES
   131   66   68 2    
   132   67  132 1    
   133   67  133 1    
   134   69   70 1    
   135   69  134 1    
   136   69  135 1    
   137   70   71 1    
   138   71  136 1    
   139   71  137 1    
@<TRIPOS>SUBSTRUCTURE
     1 UNK         1 GROUP             0       ****    0 ROOT    
