@<TRIPOS>MOLECULE
3R136
137   139    1
SMALL
USER_CHARGES


@<TRIPOS>ATOM
      1 CA         29.3285   21.8896   -3.5200 C.3       0 UNK        -0.1979 
      2 C          29.1610   21.6051   -2.0348 C.2       0 UNK         0.4864 
      3 O          28.5001   20.6317   -1.6714 O.2       0 UNK        -0.5359 
      4 N          29.7457   22.4590   -1.1818 N.am      1 UNK        -0.4318 
      5 CA         29.7513   22.3662    0.2893 C.3       1 UNK         0.0824 
      6 C6         30.4927   21.1156    0.8457 C.3       12 UNK        -0.0944 
      7 S7         32.1511   20.8763    0.1126 S.3       12 UNK        -0.2672 
      8 C8         33.2511   21.6327    1.3572 C.3       12 UNK         0.0333 
      9 C9         32.9871   23.1194    1.5750 C.ar      12 UNK        -0.0807 
     10 C10        32.8708   23.6216    2.8761 C.ar      12 UNK        -0.0894 
     11 C11        32.6295   24.9808    3.1000 C.ar      12 UNK        -0.0804 
     12 C12        32.4573   25.8265    1.9982 C.ar      12 UNK        -0.0824 
     13 C13        32.5942   25.3484    0.6928 C.ar      12 UNK        -0.0762 
     14 C14        32.8823   23.9967    0.4885 C.ar      12 UNK        -0.0782 
     15 C15        32.4838   26.3060   -0.4878 C.3       12 UNK         0.0230 
     16 S16        31.0540   25.9733   -1.5714 S.3       12 UNK        -0.2608 
     17 C17        29.6176   26.1904   -0.4714 C.3       12 UNK        -0.0989 
     18 CA         29.2496   27.6738   -0.1748 C.3       5 UNK         0.0716 
     19 N          27.7992   27.8931   -0.1911 N.am      5 UNK        -0.4135 
     20 C          27.1881   29.0841   -0.1004 C.2       4 UNK         0.5031 
     21 O          27.7798   30.1627   -0.0686 O.2       4 UNK        -0.5229 
     22 CA         25.6535   29.0626    0.0188 C.3       4 UNK         0.0329 
     23 CB         25.0034   28.9778   -1.3712 C.3       4 UNK        -0.2001 
     24 N          25.1633   27.9653    0.8595 N.am      4 UNK        -0.4303 
     25 C          25.3878   27.8654    2.1783 C.2       3 UNK         0.5044 
     26 O          25.9802   28.7191    2.8356 O.2       3 UNK        -0.5152 
     27 CA         24.9231   26.5721    2.8739 C.3       3 UNK         0.0319 
     28 CB         23.4623   26.7035    3.3323 C.3       3 UNK        -0.2001 
     29 N          25.0749   25.3628    2.0548 N.am      3 UNK        -0.4354 
     30 C          26.2242   24.9402    1.5090 C.2       2 UNK         0.4964 
     31 O          27.2961   25.5402    1.6286 O.2       2 UNK        -0.5047 
     32 CA         26.1359   23.6796    0.6308 C.3       2 UNK         0.0288 
     33 CB         25.2729   23.9443   -0.6168 C.3       2 UNK        -0.2113 
     34 N          27.4584   23.2442    0.1840 N.am      2 UNK        -0.4145 
     35 C          28.3546   22.5747    0.9225 C.2       1 UNK         0.5006 
     36 O          28.1203   22.1544    2.0577 O.2       1 UNK        -0.5103 
     37 C          29.8315   28.1245    1.1760 C.2       5 UNK         0.5055 
     38 O          30.7698   28.9213    1.2097 O.2       5 UNK        -0.5220 
     39 N          29.2304   27.6151    2.2606 N.am      6 UNK        -0.4450 
     40 CA         29.5831   27.9095    3.6474 C.3       6 UNK         0.0367 
     41 CB         28.6999   27.0654    4.5778 C.3       6 UNK        -0.1929 
     42 C          29.4952   29.4044    3.9891 C.2       6 UNK         0.5070 
     43 O          30.4179   29.9333    4.6075 O.2       6 UNK        -0.5237 
     44 N          28.4208   30.0682    3.5418 N.am      7 UNK        -0.4739 
     45 CA         28.2240   31.5121    3.6787 C.3       7 UNK         0.0276 
     46 CB         26.7983   31.8835    3.2410 C.3       7 UNK        -0.1927 
     47 C          29.2620   32.3382    2.9012 C.2       7 UNK         0.5013 
     48 O          29.7737   33.3176    3.4441 O.2       7 UNK        -0.5193 
     49 N          29.5611   31.9307    1.6587 N.am      8 UNK        -0.4253 
     50 CA         30.5340   32.5930    0.7863 C.3       8 UNK         0.0242 
     51 CB         30.4008   32.0537   -0.6473 C.3       8 UNK        -0.2000 
     52 C          31.9816   32.4564    1.2846 C.2       8 UNK         0.4948 
     53 O          32.7109   33.4489    1.2994 O.2       8 UNK        -0.5275 
     54 N          32.3725   31.2373    1.6782 N.am      9 UNK        -0.4246 
     55 CA         33.7240   30.9170    2.1469 C.3       9 UNK         0.0261 
     56 CB         33.9992   29.4321    1.8765 C.3       9 UNK        -0.1959 
     57 C          33.9707   31.2571    3.6293 C.2       9 UNK         0.5033 
     58 O          35.1291   31.2421    4.0483 O.2       9 UNK        -0.5390 
     59 N          32.9024   31.5542    4.3848 N.am      10 UNK        -0.4215 
     60 CA         32.8713   31.8445    5.8234 C.3       10 UNK         0.0240 
     61 CB         33.6799   33.1154    6.1647 C.3       10 UNK        -0.1982 
     62 C          33.2701   30.6158    6.6627 C.2       10 UNK         0.4970 
     63 O          34.2268   30.6685    7.4386 O.2       10 UNK        -0.4916 
     64 N          32.5103   29.5332    6.4836 N.am      11 UNK        -0.4279 
     65 CA         32.6418   28.2508    7.1868 C.3       11 UNK         0.1003 
     66 C          31.2489   27.6376    7.5006 C.2       11 UNK         0.5709 
     67 N          31.1570   26.3387    7.7545 N.am      11 UNK        -0.7358 
     68 O          30.2443   28.3424    7.5744 O.2       11 UNK        -0.4999 
     69 C69        33.6692   27.2900    6.5143 C.3       12 UNK        -0.0954 
     70 S70        33.4836   27.0952    4.7097 S.3       12 UNK        -0.2268 
     71 C71        32.5741   25.5222    4.5298 C.3       12 UNK         0.0203 
     72 H72        29.9130   22.7918   -3.6999 H         1 UNK         0.0888 
     73 H73        29.8349   21.0558   -4.0055 H         1 UNK         0.0888 
     74 H74        28.3539   22.0176   -3.9904 H         1 UNK         0.0888 
     75 H75        30.2785   23.2312   -1.5587 H         1 UNK         0.3017 
     76 H76        30.3106   23.2372    0.6254 H         1 UNK         0.0873 
     77 H77        30.5964   21.1815    1.9304 H         1 UNK         0.0745 
     78 H78        29.9088   20.2139    0.6538 H         1 UNK         0.0745 
     79 H79        34.2849   21.5061    1.0335 H         1 UNK         0.0705 
     80 H80        33.1507   21.0783    2.2916 H         1 UNK         0.0705 
     81 H81        32.9834   22.9538    3.7194 H         1 UNK         0.1334 
     82 H82        32.2509   26.8724    2.1599 H         1 UNK         0.1417 
     83 H83        32.9998   23.6222   -0.5194 H         1 UNK         0.1562 
     84 H84        33.3931   26.2278   -1.0853 H         1 UNK         0.0748 
     85 H85        32.4421   27.3416   -0.1498 H         1 UNK         0.0748 
     86 H86        29.7615   25.6015    0.4365 H         1 UNK         0.0940 
     87 H87        28.7889   25.7044   -0.9875 H         1 UNK         0.0940 
     88 H88        29.6734   28.3136   -0.9520 H         1 UNK         0.0703 
     89 H89        27.2265   27.0647   -0.1306 H         1 UNK         0.3081 
     90 H90        25.3461   30.0029    0.4818 H         1 UNK         0.0719 
     91 H91        25.2495   28.0449   -1.8800 H         1 UNK         0.0809 
     92 H92        23.9175   29.0488   -1.3059 H         1 UNK         0.0809 
     93 H93        25.3415   29.7959   -2.0090 H         1 UNK         0.0809 
     94 H94        24.6523   27.2247    0.4019 H         1 UNK         0.2990 
     95 H95        25.5439   26.4387    3.7615 H         1 UNK         0.0690 
     96 H96        22.7790   26.7990    2.4874 H         1 UNK         0.0788 
     97 H97        23.3289   27.5855    3.9606 H         1 UNK         0.0788 
     98 H98        23.1513   25.8402    3.9209 H         1 UNK         0.0788 
     99 H99        24.2381   24.8182    1.9011 H         1 UNK         0.2993 
    100 H100       25.6812   22.8810    1.2211 H         1 UNK         0.0949 
    101 H101       25.6663   24.7666   -1.2161 H         1 UNK         0.0767 
    102 H102       25.2233   23.0616   -1.2554 H         1 UNK         0.0767 
    103 H103       24.2465   24.1970   -0.3483 H         1 UNK         0.0767 
    104 H104       27.7419   23.5417   -0.7365 H         1 UNK         0.3013 
    105 H105       28.4736   26.9501    2.1166 H         1 UNK         0.3121 
    106 H106       30.6207   27.6089    3.7906 H         1 UNK         0.0774 
    107 H107       28.9654   27.2198    5.6216 H         1 UNK         0.0815 
    108 H108       27.6466   27.3228    4.4752 H         1 UNK         0.0815 
    109 H109       28.8075   26.0005    4.3701 H         1 UNK         0.0815 
    110 H110       27.6700   29.5444    3.0977 H         1 UNK         0.2987 
    111 H111       28.3316   31.7613    4.7367 H         1 UNK         0.0949 
    112 H112       26.6137   31.6170    2.1996 H         1 UNK         0.0806 
    113 H113       26.0521   31.3751    3.8520 H         1 UNK         0.0806 
    114 H114       26.6241   32.9556    3.3415 H         1 UNK         0.0806 
    115 H115       29.0739   31.1280    1.2730 H         1 UNK         0.3010 
    116 H116       30.2924   33.6579    0.7677 H         1 UNK         0.0829 
    117 H117       31.1176   32.5336   -1.3150 H         1 UNK         0.0813 
    118 H118       30.5783   30.9785   -0.6937 H         1 UNK         0.0813 
    119 H119       29.4057   32.2439   -1.0498 H         1 UNK         0.0813 
    120 H120       31.7186   30.4589    1.5955 H         1 UNK         0.3038 
    121 H121       34.4424   31.4978    1.5643 H         1 UNK         0.0769 
    122 H122       34.9968   29.1435    2.2104 H         1 UNK         0.0811 
    123 H123       33.9290   29.2001    0.8140 H         1 UNK         0.0811 
    124 H124       33.2829   28.8079    2.4052 H         1 UNK         0.0811 
    125 H125       31.9921   31.4619    3.9509 H         1 UNK         0.3204 
    126 H126       31.8275   32.0537    6.0637 H         1 UNK         0.0748 
    127 H127       33.5522   33.3849    7.2138 H         1 UNK         0.0771 
    128 H128       34.7484   32.9812    5.9946 H         1 UNK         0.0771 
    129 H129       33.3493   33.9659    5.5684 H         1 UNK         0.0771 
    130 H130       31.7174   29.5962    5.8457 H         1 UNK         0.2980 
    131 H131       33.0326   28.4736    8.1811 H         1 UNK         0.0545 
    132 H132       30.2567   25.9510    7.9872 H         1 UNK         0.3459 
    133 H133       31.9700   25.7449    7.7415 H         1 UNK         0.3459 
    134 H134       34.6681   27.6993    6.6711 H         1 UNK         0.0616 
    135 H135       33.6936   26.3121    6.9956 H         1 UNK         0.0616 
    136 H136       31.5343   25.6632    4.8254 H         1 UNK         0.0634 
    137 H137       33.0011   24.7942    5.2210 H         1 UNK         0.0634 
@<TRIPOS>BOND
     1    1    2 1    
     2    1   72 1    
     3    1   73 1    
     4    1   74 1    
     5    2    3 2    
     6    2    4 am   BACKBONE|DICT|INTERRES
     7    4    5 1    
     8    4   75 1    
     9    5    6 1    
    10    5   35 1    
    11    5   76 1    
    12    6    7 1    
    13    6   77 1    
    14    6   78 1    
    15    7    8 1    
    16    8    9 1    
    17    8   79 1    
    18    8   80 1    
    19    9   10 ar   
    20    9   14 ar   
    21   10   11 ar   
    22   10   81 1    
    23   11   12 ar   
    24   11   71 1    
    25   12   13 ar   
    26   12   82 1    
    27   13   14 ar   
    28   13   15 1    
    29   14   83 1    
    30   15   16 1    
    31   15   84 1    
    32   15   85 1    
    33   16   17 1    
    34   17   18 1    
    35   17   86 1    
    36   17   87 1    
    37   18   19 1    
    38   18   37 1    
    39   18   88 1    
    40   19   20 am   BACKBONE|DICT|INTERRES
    41   19   89 1    
    42   20   21 2    
    43   20   22 1    
    44   22   23 1    
    45   22   24 1    
    46   22   90 1    
    47   23   91 1    
    48   23   92 1    
    49   23   93 1    
    50   24   25 am   BACKBONE|DICT|INTERRES
    51   24   94 1    
    52   25   26 2    
    53   25   27 1    
    54   27   28 1    
    55   27   29 1    
    56   27   95 1    
    57   28   96 1    
    58   28   97 1    
    59   28   98 1    
    60   29   30 am   BACKBONE|DICT|INTERRES
    61   29   99 1    
    62   30   31 2    
    63   30   32 1    
    64   32   33 1    
    65   32   34 1    
    66   32  100 1    
    67   33  101 1    
    68   33  102 1    
    69   33  103 1    
    70   34   35 am   BACKBONE|DICT|INTERRES
    71   34  104 1    
    72   35   36 2    
    73   37   38 2    
    74   37   39 am   BACKBONE|DICT|INTERRES
    75   39   40 1    
    76   39  105 1    
    77   40   41 1    
    78   40   42 1    
    79   40  106 1    
    80   41  107 1    
    81   41  108 1    
    82   41  109 1    
    83   42   43 2    
    84   42   44 am   BACKBONE|DICT|INTERRES
    85   44   45 1    
    86   44  110 1    
    87   45   46 1    
    88   45   47 1    
    89   45  111 1    
    90   46  112 1    
    91   46  113 1    
    92   46  114 1    
    93   47   48 2    
    94   47   49 am   BACKBONE|DICT|INTERRES
    95   49   50 1    
    96   49  115 1    
    97   50   51 1    
    98   50   52 1    
    99   50  116 1    
   100   51  117 1    
   101   51  118 1    
   102   51  119 1    
   103   52   53 2    
   104   52   54 am   BACKBONE|DICT|INTERRES
   105   54   55 1    
   106   54  120 1    
   107   55   56 1    
   108   55   57 1    
   109   55  121 1    
   110   56  122 1    
   111   56  123 1    
   112   56  124 1    
   113   57   58 2    
   114   57   59 am   BACKBONE|DICT|INTERRES
   115   59   60 1    
   116   59  125 1    
   117   60   61 1    
   118   60   62 1    
   119   60  126 1    
   120   61  127 1    
   121   61  128 1    
   122   61  129 1    
   123   62   63 2    
   124   62   64 am   BACKBONE|DICT|INTERRES
   125   64   65 1    
   126   64  130 1    
   127   65   66 1    
   128   65   69 1    
   129   65  131 1    
   130   66   67 am   BACKBONE|DICT|INTERRES
   131   66   68 2    
   132   67  132 1    
   133   67  133 1    
   134   69   70 1    
   135   69  134 1    
   136   69  135 1    
   137   70   71 1    
   138   71  136 1    
   139   71  137 1    
@<TRIPOS>SUBSTRUCTURE
     1 UNK         1 GROUP             0       ****    0 ROOT    
