@<TRIPOS>MOLECULE
3R136
137   139    1
SMALL
USER_CHARGES


@<TRIPOS>ATOM
      1 CA         25.2858   20.8991   -0.8262 C.3       0 UNK        -0.1979 
      2 C          26.5609   21.3852   -0.1541 C.2       0 UNK         0.4864 
      3 O          26.6113   21.4554    1.0749 O.2       0 UNK        -0.5359 
      4 N          27.5770   21.7359   -0.9571 N.am      1 UNK        -0.4318 
      5 CA         28.8946   22.2518   -0.5606 C.3       1 UNK         0.0824 
      6 C6         29.8413   21.1471   -0.0029 C.3       12 UNK        -0.0944 
      7 S7         31.5380   21.3189   -0.6511 S.3       12 UNK        -0.2672 
      8 C8         32.4942   21.8573    0.8080 C.3       12 UNK         0.0333 
      9 C9         32.3464   23.3376    1.1555 C.ar      12 UNK        -0.0807 
     10 C10        32.3195   23.7261    2.4985 C.ar      12 UNK        -0.0894 
     11 C11        32.2330   25.0760    2.8526 C.ar      12 UNK        -0.0804 
     12 C12        32.1670   26.0471    1.8494 C.ar      12 UNK        -0.0824 
     13 C13        32.2031   25.6776    0.5013 C.ar      12 UNK        -0.0762 
     14 C14        32.2990   24.3239    0.1620 C.ar      12 UNK        -0.0782 
     15 C15        32.1834   26.7363   -0.5934 C.3       12 UNK         0.0230 
     16 S16        30.5510   26.8841   -1.3862 S.3       12 UNK        -0.2608 
     17 C17        29.6312   27.8734   -0.1617 C.3       12 UNK        -0.0989 
     18 CA         28.2162   28.2499   -0.6615 C.3       5 UNK         0.0716 
     19 N          27.3640   27.0754   -0.8660 N.am      5 UNK        -0.4135 
     20 C          26.1854   27.0779   -1.5061 C.2       4 UNK         0.5031 
     21 O          25.6938   28.0711   -2.0434 O.2       4 UNK        -0.5229 
     22 CA         25.4142   25.7494   -1.5390 C.3       4 UNK         0.0329 
     23 CB         25.9770   24.8039   -2.6137 C.3       4 UNK        -0.2001 
     24 N          25.4408   25.0918   -0.2322 N.am      4 UNK        -0.4303 
     25 C          24.6200   25.3982    0.7829 C.2       3 UNK         0.5044 
     26 O          23.7002   26.2121    0.6974 O.2       3 UNK        -0.5152 
     27 CA         24.8582   24.6828    2.1250 C.3       3 UNK         0.0319 
     28 CB         23.9120   23.4810    2.2743 C.3       3 UNK        -0.2001 
     29 N          26.2414   24.2361    2.3054 N.am      3 UNK        -0.4354 
     30 C          27.2704   25.0599    2.5544 C.2       2 UNK         0.4964 
     31 O          27.1618   26.2805    2.6642 O.2       2 UNK        -0.5047 
     32 CA         28.6659   24.4213    2.6410 C.3       2 UNK         0.0288 
     33 CB         28.8980   23.8490    4.0485 C.3       2 UNK        -0.2113 
     34 N          28.8867   23.3666    1.6489 N.am      2 UNK        -0.4145 
     35 C          28.7478   23.5075    0.3228 C.2       1 UNK         0.5006 
     36 O          28.4240   24.5669   -0.2127 O.2       1 UNK        -0.5103 
     37 C          27.5530   29.2837    0.2714 C.2       5 UNK         0.5055 
     38 O          27.5947   30.4769   -0.0326 O.2       5 UNK        -0.5220 
     39 N          26.9424   28.8091    1.3691 N.am      6 UNK        -0.4450 
     40 CA         26.1014   29.5127    2.3494 C.3       6 UNK         0.0367 
     41 CB         24.8345   30.0795    1.6806 C.3       6 UNK        -0.1929 
     42 C          26.8001   30.5894    3.2022 C.2       6 UNK         0.5070 
     43 O          26.5386   30.6581    4.4035 O.2       6 UNK        -0.5237 
     44 N          27.6555   31.4119    2.5895 N.am      7 UNK        -0.4739 
     45 CA         28.3541   32.5363    3.2117 C.3       7 UNK         0.0276 
     46 CB         27.5404   33.8281    3.0000 C.3       7 UNK        -0.1927 
     47 C          29.7879   32.6260    2.6696 C.2       7 UNK         0.5013 
     48 O          30.2095   33.6823    2.1937 O.2       7 UNK        -0.5193 
     49 N          30.5078   31.4992    2.7317 N.am      8 UNK        -0.4253 
     50 CA         31.9205   31.3939    2.3631 C.3       8 UNK         0.0242 
     51 CB         32.2988   29.9092    2.2678 C.3       8 UNK        -0.2000 
     52 C          32.8317   32.0897    3.3851 C.2       8 UNK         0.4948 
     53 O          32.5263   32.0837    4.5809 O.2       8 UNK        -0.5275 
     54 N          33.9684   32.6128    2.9077 N.am      9 UNK        -0.4246 
     55 CA         35.0419   33.1498    3.7461 C.3       9 UNK         0.0261 
     56 CB         36.1035   33.8191    2.8582 C.3       9 UNK        -0.1959 
     57 C          35.6665   32.0321    4.5965 C.2       9 UNK         0.5033 
     58 O          36.0291   30.9888    4.0461 O.2       9 UNK        -0.5390 
     59 N          35.7388   32.2556    5.9152 N.am      10 UNK        -0.4215 
     60 CA         36.1943   31.3458    6.9780 C.3       10 UNK         0.0240 
     61 CB         37.6715   30.9447    6.7920 C.3       10 UNK        -0.1982 
     62 C          35.3032   30.1055    7.1912 C.2       10 UNK         0.4970 
     63 O          34.9891   29.7916    8.3400 O.2       10 UNK        -0.4916 
     64 N          34.9184   29.4245    6.1053 N.am      11 UNK        -0.4279 
     65 CA         34.0556   28.2348    6.1163 C.3       11 UNK         0.1003 
     66 C          32.5710   28.5208    6.4895 C.2       11 UNK         0.5709 
     67 N          32.0401   29.7152    6.2557 N.am      11 UNK        -0.7358 
     68 O          31.8910   27.6483    7.0232 O.2       11 UNK        -0.4999 
     69 C69        34.1892   27.4326    4.7920 C.3       12 UNK        -0.0954 
     70 S70        33.8732   25.6499    5.0134 S.3       12 UNK        -0.2268 
     71 C71        32.1988   25.4732    4.3213 C.3       12 UNK         0.0203 
     72 H72        24.4892   21.6306   -0.6947 H         1 UNK         0.0888 
     73 H73        25.4247   20.7368   -1.8949 H         1 UNK         0.0888 
     74 H74        24.9628   19.9583   -0.3815 H         1 UNK         0.0888 
     75 H75        27.4421   21.6655   -1.9562 H         1 UNK         0.3017 
     76 H76        29.3211   22.6170   -1.4966 H         1 UNK         0.0873 
     77 H77        29.4980   20.1685   -0.3426 H         1 UNK         0.0745 
     78 H78        29.8453   21.0711    1.0844 H         1 UNK         0.0745 
     79 H79        33.5496   21.6638    0.6123 H         1 UNK         0.0705 
     80 H80        32.2233   21.2293    1.6582 H         1 UNK         0.0705 
     81 H81        32.3768   22.9766    3.2761 H         1 UNK         0.1334 
     82 H82        32.0995   27.0899    2.1196 H         1 UNK         0.1417 
     83 H83        32.3419   24.0421   -0.8811 H         1 UNK         0.1562 
     84 H84        32.9157   26.4718   -1.3576 H         1 UNK         0.0748 
     85 H85        32.4954   27.7066   -0.2049 H         1 UNK         0.0748 
     86 H86        30.2059   28.7801    0.0258 H         1 UNK         0.0940 
     87 H87        29.5823   27.3235    0.7804 H         1 UNK         0.0940 
     88 H88        28.3273   28.7354   -1.6338 H         1 UNK         0.0703 
     89 H89        27.7372   26.1878   -0.5321 H         1 UNK         0.3081 
     90 H90        24.3772   25.9698   -1.8022 H         1 UNK         0.0719 
     91 H91        25.9127   25.2615   -3.6018 H         1 UNK         0.0809 
     92 H92        27.0248   24.5589   -2.4399 H         1 UNK         0.0809 
     93 H93        25.4157   23.8703   -2.6529 H         1 UNK         0.0809 
     94 H94        26.2144   24.4656   -0.0555 H         1 UNK         0.2990 
     95 H95        24.6256   25.3959    2.9190 H         1 UNK         0.0690 
     96 H96        24.0179   23.0128    3.2530 H         1 UNK         0.0788 
     97 H97        24.1009   22.7198    1.5174 H         1 UNK         0.0788 
     98 H98        22.8703   23.7892    2.1743 H         1 UNK         0.0788 
     99 H99        26.4260   23.2462    2.1731 H         1 UNK         0.2993 
    100 H100       29.4001   25.2058    2.4515 H         1 UNK         0.0949 
    101 H101       28.8511   24.6374    4.8011 H         1 UNK         0.0767 
    102 H102       28.1474   23.1018    4.3100 H         1 UNK         0.0767 
    103 H103       29.8753   23.3757    4.1328 H         1 UNK         0.0767 
    104 H104       29.0872   22.4460    2.0093 H         1 UNK         0.3013 
    105 H105       27.0457   27.8174    1.5747 H         1 UNK         0.3121 
    106 H106       25.7762   28.7387    3.0468 H         1 UNK         0.0774 
    107 H107       24.2796   29.2978    1.1611 H         1 UNK         0.0815 
    108 H108       24.1642   30.5156    2.4224 H         1 UNK         0.0815 
    109 H109       25.0702   30.8609    0.9575 H         1 UNK         0.0815 
    110 H110       27.8037   31.2734    1.5903 H         1 UNK         0.2987 
    111 H111       28.4472   32.3661    4.2868 H         1 UNK         0.0949 
    112 H112       26.5461   33.7465    3.4394 H         1 UNK         0.0806 
    113 H113       28.0310   34.6822    3.4686 H         1 UNK         0.0806 
    114 H114       27.4207   34.0579    1.9406 H         1 UNK         0.0806 
    115 H115       30.0871   30.6893    3.1623 H         1 UNK         0.3010 
    116 H116       32.0624   31.8613    1.3861 H         1 UNK         0.0829 
    117 H117       33.3674   29.7792    2.0883 H         1 UNK         0.0813 
    118 H118       32.0516   29.3785    3.1872 H         1 UNK         0.0813 
    119 H119       31.7762   29.4241    1.4481 H         1 UNK         0.0813 
    120 H120       34.1653   32.5354    1.9204 H         1 UNK         0.3038 
    121 H121       34.6110   33.9089    4.4027 H         1 UNK         0.0769 
    122 H122       36.9049   34.2451    3.4635 H         1 UNK         0.0811 
    123 H123       35.6759   34.6316    2.2703 H         1 UNK         0.0811 
    124 H124       36.5602   33.1083    2.1681 H         1 UNK         0.0811 
    125 H125       35.3716   33.1361    6.2509 H         1 UNK         0.3204 
    126 H126       36.1341   31.9275    7.8994 H         1 UNK         0.0748 
    127 H127       38.0239   30.3580    7.6414 H         1 UNK         0.0771 
    128 H128       37.8242   30.3398    5.8977 H         1 UNK         0.0771 
    129 H129       38.3135   31.8223    6.7162 H         1 UNK         0.0771 
    130 H130       35.2310   29.7687    5.2009 H         1 UNK         0.2980 
    131 H131       34.4456   27.6021    6.9164 H         1 UNK         0.0545 
    132 H132       32.5533   30.4562    5.7929 H         1 UNK         0.3459 
    133 H133       31.0843   29.8770    6.5271 H         1 UNK         0.3459 
    134 H134       33.5541   27.8402    4.0067 H         1 UNK         0.0616 
    135 H135       35.2088   27.5116    4.4115 H         1 UNK         0.0616 
    136 H136       31.6760   24.7097    4.8977 H         1 UNK         0.0634 
    137 H137       31.6284   26.3928    4.4584 H         1 UNK         0.0634 
@<TRIPOS>BOND
     1    1    2 1    
     2    1   72 1    
     3    1   73 1    
     4    1   74 1    
     5    2    3 2    
     6    2    4 am   BACKBONE|DICT|INTERRES
     7    4    5 1    
     8    4   75 1    
     9    5    6 1    
    10    5   35 1    
    11    5   76 1    
    12    6    7 1    
    13    6   77 1    
    14    6   78 1    
    15    7    8 1    
    16    8    9 1    
    17    8   79 1    
    18    8   80 1    
    19    9   10 ar   
    20    9   14 ar   
    21   10   11 ar   
    22   10   81 1    
    23   11   12 ar   
    24   11   71 1    
    25   12   13 ar   
    26   12   82 1    
    27   13   14 ar   
    28   13   15 1    
    29   14   83 1    
    30   15   16 1    
    31   15   84 1    
    32   15   85 1    
    33   16   17 1    
    34   17   18 1    
    35   17   86 1    
    36   17   87 1    
    37   18   19 1    
    38   18   37 1    
    39   18   88 1    
    40   19   20 am   BACKBONE|DICT|INTERRES
    41   19   89 1    
    42   20   21 2    
    43   20   22 1    
    44   22   23 1    
    45   22   24 1    
    46   22   90 1    
    47   23   91 1    
    48   23   92 1    
    49   23   93 1    
    50   24   25 am   BACKBONE|DICT|INTERRES
    51   24   94 1    
    52   25   26 2    
    53   25   27 1    
    54   27   28 1    
    55   27   29 1    
    56   27   95 1    
    57   28   96 1    
    58   28   97 1    
    59   28   98 1    
    60   29   30 am   BACKBONE|DICT|INTERRES
    61   29   99 1    
    62   30   31 2    
    63   30   32 1    
    64   32   33 1    
    65   32   34 1    
    66   32  100 1    
    67   33  101 1    
    68   33  102 1    
    69   33  103 1    
    70   34   35 am   BACKBONE|DICT|INTERRES
    71   34  104 1    
    72   35   36 2    
    73   37   38 2    
    74   37   39 am   BACKBONE|DICT|INTERRES
    75   39   40 1    
    76   39  105 1    
    77   40   41 1    
    78   40   42 1    
    79   40  106 1    
    80   41  107 1    
    81   41  108 1    
    82   41  109 1    
    83   42   43 2    
    84   42   44 am   BACKBONE|DICT|INTERRES
    85   44   45 1    
    86   44  110 1    
    87   45   46 1    
    88   45   47 1    
    89   45  111 1    
    90   46  112 1    
    91   46  113 1    
    92   46  114 1    
    93   47   48 2    
    94   47   49 am   BACKBONE|DICT|INTERRES
    95   49   50 1    
    96   49  115 1    
    97   50   51 1    
    98   50   52 1    
    99   50  116 1    
   100   51  117 1    
   101   51  118 1    
   102   51  119 1    
   103   52   53 2    
   104   52   54 am   BACKBONE|DICT|INTERRES
   105   54   55 1    
   106   54  120 1    
   107   55   56 1    
   108   55   57 1    
   109   55  121 1    
   110   56  122 1    
   111   56  123 1    
   112   56  124 1    
   113   57   58 2    
   114   57   59 am   BACKBONE|DICT|INTERRES
   115   59   60 1    
   116   59  125 1    
   117   60   61 1    
   118   60   62 1    
   119   60  126 1    
   120   61  127 1    
   121   61  128 1    
   122   61  129 1    
   123   62   63 2    
   124   62   64 am   BACKBONE|DICT|INTERRES
   125   64   65 1    
   126   64  130 1    
   127   65   66 1    
   128   65   69 1    
   129   65  131 1    
   130   66   67 am   BACKBONE|DICT|INTERRES
   131   66   68 2    
   132   67  132 1    
   133   67  133 1    
   134   69   70 1    
   135   69  134 1    
   136   69  135 1    
   137   70   71 1    
   138   71  136 1    
   139   71  137 1    
@<TRIPOS>SUBSTRUCTURE
     1 UNK         1 GROUP             0       ****    0 ROOT    
