@<TRIPOS>MOLECULE
3R136
137   139    1
SMALL
USER_CHARGES


@<TRIPOS>ATOM
      1 CA         32.5907   23.7779    4.9725 C.3       0 UNK        -0.1979 
      2 C          31.2305   23.5141    4.3467 C.2       0 UNK         0.4864 
      3 O          30.2970   23.1314    5.0540 O.2       0 UNK        -0.5359 
      4 N          31.1022   23.7087    3.0266 N.am      1 UNK        -0.4318 
      5 CA         29.9028   23.3940    2.2347 C.3       1 UNK         0.0824 
      6 C6         30.2290   23.0932    0.7453 C.3       12 UNK        -0.0944 
      7 S7         31.6218   21.9240    0.5229 S.3       12 UNK        -0.2672 
      8 C8         32.4760   22.5579   -0.9647 C.3       12 UNK         0.0333 
      9 C9         32.7441   24.0552   -0.8952 C.ar      12 UNK        -0.0807 
     10 C10        33.5934   24.5786    0.0826 C.ar      12 UNK        -0.0894 
     11 C11        33.7478   25.9610    0.2176 C.ar      12 UNK        -0.0804 
     12 C12        33.0664   26.8224   -0.6484 C.ar      12 UNK        -0.0824 
     13 C13        32.2339   26.3088   -1.6465 C.ar      12 UNK        -0.0762 
     14 C14        32.0889   24.9238   -1.7732 C.ar      12 UNK        -0.0782 
     15 C15        31.4913   27.2475   -2.5880 C.3       12 UNK         0.0230 
     16 S16        29.6910   26.9660   -2.5734 S.3       12 UNK        -0.2608 
     17 C17        29.2132   27.6791   -0.9650 C.3       12 UNK        -0.0989 
     18 CA         27.6712   27.7934   -0.8586 C.3       5 UNK         0.0716 
     19 N          27.0486   26.4820   -0.6950 N.am      5 UNK        -0.4135 
     20 C          26.0714   25.9723   -1.4523 C.2       4 UNK         0.5031 
     21 O          25.6780   26.4675   -2.5096 O.2       4 UNK        -0.5229 
     22 CA         25.3647   24.7277   -0.8883 C.3       4 UNK         0.0329 
     23 CB         26.2376   23.4691   -1.0225 C.3       4 UNK        -0.2001 
     24 N          25.0003   24.9493    0.5141 N.am      4 UNK        -0.4303 
     25 C          23.9744   25.7205    0.9043 C.2       3 UNK         0.5044 
     26 O          23.1107   26.1397    0.1325 O.2       3 UNK        -0.5152 
     27 CA         23.9098   26.1546    2.3796 C.3       3 UNK         0.0319 
     28 CB         22.9289   25.2886    3.1957 C.3       3 UNK        -0.2001 
     29 N          25.2308   26.2832    3.0107 N.am      3 UNK        -0.4354 
     30 C          26.0356   25.3250    3.4845 C.2       2 UNK         0.4964 
     31 O          25.7448   24.1280    3.5296 O.2       2 UNK        -0.5047 
     32 CA         27.4191   25.7920    3.9676 C.3       2 UNK         0.0288 
     33 CB         27.4194   26.0253    5.4860 C.3       2 UNK        -0.2113 
     34 N          28.4660   24.8288    3.6274 N.am      2 UNK        -0.4145 
     35 C          28.8126   24.4825    2.3814 C.2       1 UNK         0.5006 
     36 O          28.3063   24.9934    1.3795 O.2       1 UNK        -0.5103 
     37 C          27.2442   28.6753    0.3313 C.2       5 UNK         0.5055 
     38 O          26.7467   28.1666    1.3411 O.2       5 UNK        -0.5220 
     39 N          27.4223   29.9926    0.1763 N.am      6 UNK        -0.4450 
     40 CA         27.0926   31.0028    1.1877 C.3       6 UNK         0.0367 
     41 CB         26.1090   32.0132    0.5704 C.3       6 UNK        -0.1929 
     42 C          28.3384   31.7247    1.7326 C.2       6 UNK         0.5070 
     43 O          28.1976   32.5662    2.6208 O.2       6 UNK        -0.5237 
     44 N          29.5262   31.4133    1.2018 N.am      7 UNK        -0.4739 
     45 CA         30.8059   32.0150    1.5646 C.3       7 UNK         0.0276 
     46 CB         30.9649   33.3587    0.8240 C.3       7 UNK        -0.1927 
     47 C          31.9338   31.0371    1.1916 C.2       7 UNK         0.5013 
     48 O          31.7020   30.1609    0.3562 O.2       7 UNK        -0.5193 
     49 N          33.1438   31.1620    1.7535 N.am      8 UNK        -0.4253 
     50 CA         33.5812   32.1069    2.7847 C.3       8 UNK         0.0242 
     51 CB         34.8961   32.7550    2.3207 C.3       8 UNK        -0.2000 
     52 C          33.8015   31.3708    4.1134 C.2       8 UNK         0.4948 
     53 O          34.0573   30.1637    4.1119 O.2       8 UNK        -0.5275 
     54 N          33.7302   32.1252    5.2203 N.am      9 UNK        -0.4246 
     55 CA         33.9297   31.6767    6.6042 C.3       9 UNK         0.0261 
     56 CB         35.4260   31.3793    6.8606 C.3       9 UNK        -0.1959 
     57 C          32.9796   30.5174    6.9629 C.2       9 UNK         0.5033 
     58 O          31.7626   30.7012    6.8925 O.2       9 UNK        -0.5390 
     59 N          33.5356   29.3438    7.2947 N.am      10 UNK        -0.4215 
     60 CA         32.8029   28.1089    7.5931 C.3       10 UNK         0.0240 
     61 CB         33.7995   27.0259    8.0383 C.3       10 UNK        -0.1982 
     62 C          31.9362   27.5890    6.4305 C.2       10 UNK         0.4970 
     63 O          30.9672   26.8752    6.6879 O.2       10 UNK        -0.4916 
     64 N          32.2855   27.9522    5.1900 N.am      11 UNK        -0.4279 
     65 CA         31.5019   27.6504    3.9855 C.3       11 UNK         0.1003 
     66 C          30.3371   28.6518    3.7355 C.2       11 UNK         0.5709 
     67 N          30.1533   29.6965    4.5373 N.am      11 UNK        -0.7358 
     68 O          29.5777   28.4743    2.7904 O.2       11 UNK        -0.4999 
     69 C69        32.3993   27.5186    2.7288 C.3       12 UNK        -0.0954 
     70 S70        33.7982   26.3705    2.9438 S.3       12 UNK        -0.2268 
     71 C71        34.6194   26.5209    1.3293 C.3       12 UNK         0.0203 
     72 H72        32.6159   24.7725    5.4157 H         1 UNK         0.0888 
     73 H73        32.7936   23.0499    5.7575 H         1 UNK         0.0888 
     74 H74        33.3907   23.7045    4.2363 H         1 UNK         0.0888 
     75 H75        31.8911   24.0474    2.4938 H         1 UNK         0.3017 
     76 H76        29.4691   22.4797    2.6460 H         1 UNK         0.0873 
     77 H77        30.4347   24.0262    0.2227 H         1 UNK         0.0745 
     78 H78        29.3561   22.6655    0.2498 H         1 UNK         0.0745 
     79 H79        33.4217   22.0277   -1.0842 H         1 UNK         0.0705 
     80 H80        31.8744   22.3132   -1.8415 H         1 UNK         0.0705 
     81 H81        34.0981   23.9113    0.7682 H         1 UNK         0.1334 
     82 H82        33.1713   27.8931   -0.5337 H         1 UNK         0.1417 
     83 H83        31.4291   24.5263   -2.5327 H         1 UNK         0.1562 
     84 H84        31.8620   27.0894   -3.6016 H         1 UNK         0.0748 
     85 H85        31.6943   28.2922   -2.3455 H         1 UNK         0.0748 
     86 H86        29.6906   28.6566   -0.8775 H         1 UNK         0.0940 
     87 H87        29.6204   27.0665   -0.1571 H         1 UNK         0.0940 
     88 H88        27.2901   28.2767   -1.7610 H         1 UNK         0.0703 
     89 H89        27.3164   25.9962    0.1584 H         1 UNK         0.3081 
     90 H90        24.4531   24.5640   -1.4673 H         1 UNK         0.0719 
     91 H91        26.4881   23.2822   -2.0675 H         1 UNK         0.0809 
     92 H92        27.1758   23.5590   -0.4771 H         1 UNK         0.0809 
     93 H93        25.7180   22.5859   -0.6508 H         1 UNK         0.0809 
     94 H94        25.6569   24.6381    1.2176 H         1 UNK         0.2990 
     95 H95        23.5083   27.1693    2.3754 H         1 UNK         0.0690 
     96 H96        22.8919   25.6034    4.2386 H         1 UNK         0.0788 
     97 H97        23.1934   24.2313    3.1702 H         1 UNK         0.0788 
     98 H98        21.9181   25.3728    2.7949 H         1 UNK         0.0788 
     99 H99        25.6427   27.2053    2.9055 H         1 UNK         0.2993 
    100 H100       27.6651   26.7320    3.4696 H         1 UNK         0.0949 
    101 H101       27.2103   25.1059    6.0346 H         1 UNK         0.0767 
    102 H102       28.3816   26.4087    5.8262 H         1 UNK         0.0767 
    103 H103       26.6615   26.7568    5.7695 H         1 UNK         0.0767 
    104 H104       28.9169   24.3344    4.3918 H         1 UNK         0.3013 
    105 H105       27.8099   30.3379   -0.6908 H         1 UNK         0.3121 
    106 H106       26.6047   30.5402    2.0481 H         1 UNK         0.0774 
    107 H107       26.5496   32.5411   -0.2760 H         1 UNK         0.0815 
    108 H108       25.2011   31.5195    0.2234 H         1 UNK         0.0815 
    109 H109       25.8067   32.7642    1.3016 H         1 UNK         0.0815 
    110 H110       29.6064   30.6376    0.5571 H         1 UNK         0.2987 
    111 H111       30.8107   32.1673    2.6453 H         1 UNK         0.0949 
    112 H112       30.1985   34.0723    1.1271 H         1 UNK         0.0806 
    113 H113       31.9311   33.8212    1.0250 H         1 UNK         0.0806 
    114 H114       30.8901   33.2287   -0.2563 H         1 UNK         0.0806 
    115 H115       33.8321   30.4599    1.5256 H         1 UNK         0.3010 
    116 H116       32.8550   32.9017    2.9485 H         1 UNK         0.0829 
    117 H117       35.6844   32.0143    2.1783 H         1 UNK         0.0813 
    118 H118       35.2589   33.4795    3.0512 H         1 UNK         0.0813 
    119 H119       34.7639   33.2870    1.3783 H         1 UNK         0.0813 
    120 H120       33.4925   33.1022    5.1177 H         1 UNK         0.3038 
    121 H121       33.6441   32.5103    7.2477 H         1 UNK         0.0769 
    122 H122       35.6052   31.1100    7.9025 H         1 UNK         0.0811 
    123 H123       36.0357   32.2593    6.6550 H         1 UNK         0.0811 
    124 H124       35.8032   30.5709    6.2329 H         1 UNK         0.0811 
    125 H125       34.5435   29.2833    7.2966 H         1 UNK         0.3204 
    126 H126       32.1299   28.3209    8.4266 H         1 UNK         0.0748 
    127 H127       34.5144   26.7870    7.2495 H         1 UNK         0.0771 
    128 H128       34.3605   27.3383    8.9194 H         1 UNK         0.0771 
    129 H129       33.2814   26.1015    8.2981 H         1 UNK         0.0771 
    130 H130       33.0786   28.5682    5.0473 H         1 UNK         0.2980 
    131 H131       31.0225   26.6807    4.1305 H         1 UNK         0.0545 
    132 H132       30.7589   29.8682    5.3320 H         1 UNK         0.3459 
    133 H133       29.3848   30.3197    4.3526 H         1 UNK         0.3459 
    134 H134       32.8055   28.4881    2.4462 H         1 UNK         0.0616 
    135 H135       31.8009   27.1758    1.8829 H         1 UNK         0.0616 
    136 H136       35.5651   25.9781    1.3600 H         1 UNK         0.0634 
    137 H137       34.8683   27.5672    1.1449 H         1 UNK         0.0634 
@<TRIPOS>BOND
     1    1    2 1    
     2    1   72 1    
     3    1   73 1    
     4    1   74 1    
     5    2    3 2    
     6    2    4 am   BACKBONE|DICT|INTERRES
     7    4    5 1    
     8    4   75 1    
     9    5    6 1    
    10    5   35 1    
    11    5   76 1    
    12    6    7 1    
    13    6   77 1    
    14    6   78 1    
    15    7    8 1    
    16    8    9 1    
    17    8   79 1    
    18    8   80 1    
    19    9   10 ar   
    20    9   14 ar   
    21   10   11 ar   
    22   10   81 1    
    23   11   12 ar   
    24   11   71 1    
    25   12   13 ar   
    26   12   82 1    
    27   13   14 ar   
    28   13   15 1    
    29   14   83 1    
    30   15   16 1    
    31   15   84 1    
    32   15   85 1    
    33   16   17 1    
    34   17   18 1    
    35   17   86 1    
    36   17   87 1    
    37   18   19 1    
    38   18   37 1    
    39   18   88 1    
    40   19   20 am   BACKBONE|DICT|INTERRES
    41   19   89 1    
    42   20   21 2    
    43   20   22 1    
    44   22   23 1    
    45   22   24 1    
    46   22   90 1    
    47   23   91 1    
    48   23   92 1    
    49   23   93 1    
    50   24   25 am   BACKBONE|DICT|INTERRES
    51   24   94 1    
    52   25   26 2    
    53   25   27 1    
    54   27   28 1    
    55   27   29 1    
    56   27   95 1    
    57   28   96 1    
    58   28   97 1    
    59   28   98 1    
    60   29   30 am   BACKBONE|DICT|INTERRES
    61   29   99 1    
    62   30   31 2    
    63   30   32 1    
    64   32   33 1    
    65   32   34 1    
    66   32  100 1    
    67   33  101 1    
    68   33  102 1    
    69   33  103 1    
    70   34   35 am   BACKBONE|DICT|INTERRES
    71   34  104 1    
    72   35   36 2    
    73   37   38 2    
    74   37   39 am   BACKBONE|DICT|INTERRES
    75   39   40 1    
    76   39  105 1    
    77   40   41 1    
    78   40   42 1    
    79   40  106 1    
    80   41  107 1    
    81   41  108 1    
    82   41  109 1    
    83   42   43 2    
    84   42   44 am   BACKBONE|DICT|INTERRES
    85   44   45 1    
    86   44  110 1    
    87   45   46 1    
    88   45   47 1    
    89   45  111 1    
    90   46  112 1    
    91   46  113 1    
    92   46  114 1    
    93   47   48 2    
    94   47   49 am   BACKBONE|DICT|INTERRES
    95   49   50 1    
    96   49  115 1    
    97   50   51 1    
    98   50   52 1    
    99   50  116 1    
   100   51  117 1    
   101   51  118 1    
   102   51  119 1    
   103   52   53 2    
   104   52   54 am   BACKBONE|DICT|INTERRES
   105   54   55 1    
   106   54  120 1    
   107   55   56 1    
   108   55   57 1    
   109   55  121 1    
   110   56  122 1    
   111   56  123 1    
   112   56  124 1    
   113   57   58 2    
   114   57   59 am   BACKBONE|DICT|INTERRES
   115   59   60 1    
   116   59  125 1    
   117   60   61 1    
   118   60   62 1    
   119   60  126 1    
   120   61  127 1    
   121   61  128 1    
   122   61  129 1    
   123   62   63 2    
   124   62   64 am   BACKBONE|DICT|INTERRES
   125   64   65 1    
   126   64  130 1    
   127   65   66 1    
   128   65   69 1    
   129   65  131 1    
   130   66   67 am   BACKBONE|DICT|INTERRES
   131   66   68 2    
   132   67  132 1    
   133   67  133 1    
   134   69   70 1    
   135   69  134 1    
   136   69  135 1    
   137   70   71 1    
   138   71  136 1    
   139   71  137 1    
@<TRIPOS>SUBSTRUCTURE
     1 UNK         1 GROUP             0       ****    0 ROOT    
