@<TRIPOS>MOLECULE
3R136
137   139    1
SMALL
USER_CHARGES


@<TRIPOS>ATOM
      1 CA         26.0339   23.5644    5.4187 C.3       0 UNK        -0.1979 
      2 C          25.7437   22.8233    4.1221 C.2       0 UNK         0.4864 
      3 O          24.6392   22.3060    3.9462 O.2       0 UNK        -0.5359 
      4 N          26.7327   22.7547    3.2215 N.am      1 UNK        -0.4318 
      5 CA         26.6242   22.1284    1.9017 C.3       1 UNK         0.0824 
      6 C6         28.0155   21.8544    1.2708 C.3       12 UNK        -0.0944 
      7 S7         29.1196   23.3101    1.1865 S.3       12 UNK        -0.2672 
      8 C8         30.5808   22.6951    2.0950 C.3       12 UNK         0.0333 
      9 C9         31.7018   23.7262    2.1230 C.ar      12 UNK        -0.0807 
     10 C10        32.1885   24.2362    3.3330 C.ar      12 UNK        -0.0894 
     11 C11        33.2049   25.2011    3.3417 C.ar      12 UNK        -0.0804 
     12 C12        33.7282   25.6535    2.1277 C.ar      12 UNK        -0.0824 
     13 C13        33.2309   25.1718    0.9153 C.ar      12 UNK        -0.0762 
     14 C14        32.2485   24.1797    0.9213 C.ar      12 UNK        -0.0782 
     15 C15        33.7173   25.7573   -0.4011 C.3       12 UNK         0.0230 
     16 S16        32.9267   27.3646   -0.7562 S.3       12 UNK        -0.2608 
     17 C17        31.1524   26.9286   -0.8511 C.3       12 UNK        -0.0989 
     18 CA         30.2115   27.7633    0.0585 C.3       5 UNK         0.0716 
     19 N          28.8157   27.4347   -0.2461 N.am      5 UNK        -0.4135 
     20 C          27.7391   28.1414    0.1216 C.2       4 UNK         0.5031 
     21 O          27.8098   29.2039    0.7388 O.2       4 UNK        -0.5229 
     22 CA         26.3556   27.5326   -0.1858 C.3       4 UNK         0.0329 
     23 CB         25.3847   28.5704   -0.7863 C.3       4 UNK        -0.2001 
     24 N          26.3945   26.2984   -0.9875 N.am      4 UNK        -0.4303 
     25 C          26.7521   26.1628   -2.2769 C.2       3 UNK         0.5044 
     26 O          27.1186   27.0987   -2.9869 O.2       3 UNK        -0.5152 
     27 CA         26.7525   24.7410   -2.8750 C.3       3 UNK         0.0319 
     28 CB         28.1960   24.2297   -3.0242 C.3       3 UNK        -0.2001 
     29 N          25.9906   23.7669   -2.0913 N.am      3 UNK        -0.4354 
     30 C          24.6592   23.7675   -1.9354 C.2       2 UNK         0.4964 
     31 O          23.9028   24.5355   -2.5304 O.2       2 UNK        -0.5047 
     32 CA         24.0683   22.7621   -0.9280 C.3       2 UNK         0.0288 
     33 CB         23.3974   21.5932   -1.6688 C.3       2 UNK        -0.2113 
     34 N          25.0267   22.2221    0.0471 N.am      2 UNK        -0.4145 
     35 C          25.7090   22.9363    0.9560 C.2       1 UNK         0.5006 
     36 O          25.6668   24.1687    1.0314 O.2       1 UNK        -0.5103 
     37 C          30.5080   27.6553    1.5777 C.2       5 UNK         0.5055 
     38 O          31.4150   28.3239    2.0644 O.2       5 UNK        -0.5220 
     39 N          29.6824   26.8967    2.3170 N.am      6 UNK        -0.4450 
     40 CA         29.7024   26.7718    3.7780 C.3       6 UNK         0.0367 
     41 CB         28.8296   25.5729    4.1841 C.3       6 UNK        -0.1929 
     42 C          29.2709   28.0286    4.5629 C.2       6 UNK         0.5070 
     43 O          29.2935   27.9873    5.7946 O.2       6 UNK        -0.5237 
     44 N          28.8460   29.1029    3.8817 N.am      7 UNK        -0.4739 
     45 CA         28.3585   30.3541    4.4730 C.3       7 UNK         0.0276 
     46 CB         27.6097   31.1559    3.3927 C.3       7 UNK        -0.1927 
     47 C          29.4617   31.1857    5.1641 C.2       7 UNK         0.5013 
     48 O          29.7950   32.2780    4.6975 O.2       7 UNK        -0.5193 
     49 N          29.9941   30.6533    6.2732 N.am      8 UNK        -0.4253 
     50 CA         30.9568   31.2548    7.2027 C.3       8 UNK         0.0242 
     51 CB         30.2584   32.3308    8.0649 C.3       8 UNK        -0.2000 
     52 C          32.2225   31.7600    6.4883 C.2       8 UNK         0.4948 
     53 O          33.0726   30.9484    6.1222 O.2       8 UNK        -0.5275 
     54 N          32.3084   33.0800    6.2675 N.am      9 UNK        -0.4246 
     55 CA         33.3853   33.7607    5.5427 C.3       9 UNK         0.0261 
     56 CB         33.1374   35.2772    5.5768 C.3       9 UNK        -0.1959 
     57 C          33.5755   33.2791    4.0923 C.2       9 UNK         0.5033 
     58 O          34.6821   33.4071    3.5652 O.2       9 UNK        -0.5390 
     59 N          32.5283   32.6969    3.4856 N.am      10 UNK        -0.4215 
     60 CA         32.5783   32.0584    2.1669 C.3       10 UNK         0.0240 
     61 CB         31.1637   31.6345    1.7441 C.3       10 UNK        -0.1982 
     62 C          33.5595   30.8713    2.0773 C.2       10 UNK         0.4970 
     63 O          34.0369   30.5921    0.9763 O.2       10 UNK        -0.4916 
     64 N          33.8887   30.2358    3.2146 N.am      11 UNK        -0.4279 
     65 CA         34.9510   29.2219    3.3072 C.3       11 UNK         0.1003 
     66 C          36.3907   29.7854    3.1055 C.2       11 UNK         0.5709 
     67 N          36.6185   31.0949    3.1413 N.am      11 UNK        -0.7358 
     68 O          37.3248   29.0125    2.9055 O.2       11 UNK        -0.4999 
     69 C69        34.8791   28.3937    4.6209 C.3       12 UNK        -0.0954 
     70 S70        33.2964   27.5208    4.8907 S.3       12 UNK        -0.2268 
     71 C71        33.7341   25.7614    4.6570 C.3       12 UNK         0.0203 
     72 H72        25.5460   23.0671    6.2566 H         1 UNK         0.0888 
     73 H73        27.1020   23.6005    5.6304 H         1 UNK         0.0888 
     74 H74        25.6571   24.5852    5.3612 H         1 UNK         0.0888 
     75 H75        27.6078   23.2238    3.3979 H         1 UNK         0.3017 
     76 H76        26.1447   21.1587    2.0545 H         1 UNK         0.0873 
     77 H77        27.9121   21.4440    0.2645 H         1 UNK         0.0745 
     78 H78        28.5101   21.0699    1.8456 H         1 UNK         0.0745 
     79 H79        30.9476   21.7862    1.6159 H         1 UNK         0.0705 
     80 H80        30.2846   22.4176    3.1078 H         1 UNK         0.0705 
     81 H81        31.7705   23.8896    4.2681 H         1 UNK         0.1334 
     82 H82        34.5003   26.4069    2.1243 H         1 UNK         0.1417 
     83 H83        31.8690   23.7899   -0.0136 H         1 UNK         0.1562 
     84 H84        33.5246   25.0699   -1.2263 H         1 UNK         0.0748 
     85 H85        34.7989   25.8948   -0.3634 H         1 UNK         0.0748 
     86 H86        31.0053   25.8664   -0.6687 H         1 UNK         0.0940 
     87 H87        30.8602   27.0762   -1.8923 H         1 UNK         0.0940 
     88 H88        30.3537   28.8140   -0.2038 H         1 UNK         0.0703 
     89 H89        28.6562   26.5789   -0.7550 H         1 UNK         0.3081 
     90 H90        25.9491   27.2330    0.7815 H         1 UNK         0.0719 
     91 H91        25.2383   29.4081   -0.1032 H         1 UNK         0.0809 
     92 H92        25.7568   28.9828   -1.7244 H         1 UNK         0.0809 
     93 H93        24.4044   28.1332   -0.9757 H         1 UNK         0.0809 
     94 H94        26.1296   25.4597   -0.4781 H         1 UNK         0.2990 
     95 H95        26.3030   24.8049   -3.8682 H         1 UNK         0.0690 
     96 H96        28.7961   24.9170   -3.6225 H         1 UNK         0.0788 
     97 H97        28.2237   23.2618   -3.5252 H         1 UNK         0.0788 
     98 H98        28.6904   24.1211   -2.0577 H         1 UNK         0.0788 
     99 H99        26.5265   23.0864   -1.5735 H         1 UNK         0.2993 
    100 H100       23.3001   23.2972   -0.3654 H         1 UNK         0.0949 
    101 H101       22.8810   20.9274   -0.9768 H         1 UNK         0.0767 
    102 H102       22.6533   21.9555   -2.3799 H         1 UNK         0.0767 
    103 H103       24.1223   21.0014   -2.2292 H         1 UNK         0.0767 
    104 H104       25.1348   21.2176    0.0466 H         1 UNK         0.3013 
    105 H105       28.9641   26.3766    1.8366 H         1 UNK         0.3121 
    106 H106       30.7272   26.5589    4.0778 H         1 UNK         0.0774 
    107 H107       27.8001   25.6908    3.8443 H         1 UNK         0.0815 
    108 H108       29.2231   24.6458    3.7750 H         1 UNK         0.0815 
    109 H109       28.8061   25.4502    5.2678 H         1 UNK         0.0815 
    110 H110       28.8539   29.0615    2.8707 H         1 UNK         0.2987 
    111 H111       27.6307   30.0978    5.2461 H         1 UNK         0.0949 
    112 H112       27.2173   32.0897    3.7976 H         1 UNK         0.0806 
    113 H113       28.2584   31.4104    2.5542 H         1 UNK         0.0806 
    114 H114       26.7625   30.5945    2.9984 H         1 UNK         0.0806 
    115 H115       29.7278   29.6913    6.4729 H         1 UNK         0.3010 
    116 H116       31.2839   30.4566    7.8709 H         1 UNK         0.0829 
    117 H117       29.8086   33.1207    7.4623 H         1 UNK         0.0813 
    118 H118       29.4632   31.8891    8.6657 H         1 UNK         0.0813 
    119 H119       30.9587   32.7969    8.7596 H         1 UNK         0.0813 
    120 H120       31.5366   33.6557    6.5717 H         1 UNK         0.3038 
    121 H121       34.3161   33.5523    6.0742 H         1 UNK         0.0769 
    122 H122       32.2015   35.5440    5.0840 H         1 UNK         0.0811 
    123 H123       33.9385   35.8151    5.0675 H         1 UNK         0.0811 
    124 H124       33.0989   35.6517    6.5999 H         1 UNK         0.0811 
    125 H125       31.6483   32.6290    3.9907 H         1 UNK         0.3204 
    126 H126       32.9272   32.8128    1.4589 H         1 UNK         0.0748 
    127 H127       31.1693   31.1899    0.7481 H         1 UNK         0.0771 
    128 H128       30.7516   30.8918    2.4265 H         1 UNK         0.0771 
    129 H129       30.4819   32.4846    1.7194 H         1 UNK         0.0771 
    130 H130       33.4632   30.5127    4.0918 H         1 UNK         0.2980 
    131 H131       34.7901   28.5359    2.4765 H         1 UNK         0.0545 
    132 H132       35.8654   31.7571    3.2904 H         1 UNK         0.3459 
    133 H133       37.5579   31.4314    3.0044 H         1 UNK         0.3459 
    134 H134       35.0365   29.0509    5.4779 H         1 UNK         0.0616 
    135 H135       35.6922   27.6676    4.6570 H         1 UNK         0.0616 
    136 H136       34.8134   25.6160    4.7050 H         1 UNK         0.0634 
    137 H137       33.3212   25.2000    5.4962 H         1 UNK         0.0634 
@<TRIPOS>BOND
     1    1    2 1    
     2    1   72 1    
     3    1   73 1    
     4    1   74 1    
     5    2    3 2    
     6    2    4 am   BACKBONE|DICT|INTERRES
     7    4    5 1    
     8    4   75 1    
     9    5    6 1    
    10    5   35 1    
    11    5   76 1    
    12    6    7 1    
    13    6   77 1    
    14    6   78 1    
    15    7    8 1    
    16    8    9 1    
    17    8   79 1    
    18    8   80 1    
    19    9   10 ar   
    20    9   14 ar   
    21   10   11 ar   
    22   10   81 1    
    23   11   12 ar   
    24   11   71 1    
    25   12   13 ar   
    26   12   82 1    
    27   13   14 ar   
    28   13   15 1    
    29   14   83 1    
    30   15   16 1    
    31   15   84 1    
    32   15   85 1    
    33   16   17 1    
    34   17   18 1    
    35   17   86 1    
    36   17   87 1    
    37   18   19 1    
    38   18   37 1    
    39   18   88 1    
    40   19   20 am   BACKBONE|DICT|INTERRES
    41   19   89 1    
    42   20   21 2    
    43   20   22 1    
    44   22   23 1    
    45   22   24 1    
    46   22   90 1    
    47   23   91 1    
    48   23   92 1    
    49   23   93 1    
    50   24   25 am   BACKBONE|DICT|INTERRES
    51   24   94 1    
    52   25   26 2    
    53   25   27 1    
    54   27   28 1    
    55   27   29 1    
    56   27   95 1    
    57   28   96 1    
    58   28   97 1    
    59   28   98 1    
    60   29   30 am   BACKBONE|DICT|INTERRES
    61   29   99 1    
    62   30   31 2    
    63   30   32 1    
    64   32   33 1    
    65   32   34 1    
    66   32  100 1    
    67   33  101 1    
    68   33  102 1    
    69   33  103 1    
    70   34   35 am   BACKBONE|DICT|INTERRES
    71   34  104 1    
    72   35   36 2    
    73   37   38 2    
    74   37   39 am   BACKBONE|DICT|INTERRES
    75   39   40 1    
    76   39  105 1    
    77   40   41 1    
    78   40   42 1    
    79   40  106 1    
    80   41  107 1    
    81   41  108 1    
    82   41  109 1    
    83   42   43 2    
    84   42   44 am   BACKBONE|DICT|INTERRES
    85   44   45 1    
    86   44  110 1    
    87   45   46 1    
    88   45   47 1    
    89   45  111 1    
    90   46  112 1    
    91   46  113 1    
    92   46  114 1    
    93   47   48 2    
    94   47   49 am   BACKBONE|DICT|INTERRES
    95   49   50 1    
    96   49  115 1    
    97   50   51 1    
    98   50   52 1    
    99   50  116 1    
   100   51  117 1    
   101   51  118 1    
   102   51  119 1    
   103   52   53 2    
   104   52   54 am   BACKBONE|DICT|INTERRES
   105   54   55 1    
   106   54  120 1    
   107   55   56 1    
   108   55   57 1    
   109   55  121 1    
   110   56  122 1    
   111   56  123 1    
   112   56  124 1    
   113   57   58 2    
   114   57   59 am   BACKBONE|DICT|INTERRES
   115   59   60 1    
   116   59  125 1    
   117   60   61 1    
   118   60   62 1    
   119   60  126 1    
   120   61  127 1    
   121   61  128 1    
   122   61  129 1    
   123   62   63 2    
   124   62   64 am   BACKBONE|DICT|INTERRES
   125   64   65 1    
   126   64  130 1    
   127   65   66 1    
   128   65   69 1    
   129   65  131 1    
   130   66   67 am   BACKBONE|DICT|INTERRES
   131   66   68 2    
   132   67  132 1    
   133   67  133 1    
   134   69   70 1    
   135   69  134 1    
   136   69  135 1    
   137   70   71 1    
   138   71  136 1    
   139   71  137 1    
@<TRIPOS>SUBSTRUCTURE
     1 UNK         1 GROUP             0       ****    0 ROOT    
