@<TRIPOS>MOLECULE
3R136
137   139    1
SMALL
USER_CHARGES


@<TRIPOS>ATOM
      1 CA         32.9037   21.4408   -3.0679 C.3       0 UNK        -0.1979 
      2 C          32.0340   22.3867   -2.2526 C.2       0 UNK         0.4864 
      3 O          32.1705   23.6042   -2.3798 O.2       0 UNK        -0.5359 
      4 N          31.1483   21.8364   -1.4117 N.am      1 UNK        -0.4318 
      5 CA         30.1870   22.5904   -0.6027 C.3       1 UNK         0.0824 
      6 C6         29.6429   21.7227    0.5624 C.3       12 UNK        -0.0944 
      7 S7         28.8555   22.7248    1.8687 S.3       12 UNK        -0.2672 
      8 C8         30.2254   22.9505    3.0430 C.3       12 UNK         0.0333 
      9 C9         30.1202   24.2865    3.7647 C.ar      12 UNK        -0.0807 
     10 C10        31.1050   25.2618    3.5822 C.ar      12 UNK        -0.0894 
     11 C11        31.0350   26.4812    4.2629 C.ar      12 UNK        -0.0804 
     12 C12        29.9591   26.7274    5.1197 C.ar      12 UNK        -0.0824 
     13 C13        28.9548   25.7697    5.2945 C.ar      12 UNK        -0.0762 
     14 C14        29.0471   24.5465    4.6237 C.ar      12 UNK        -0.0782 
     15 C15        27.7716   26.0547    6.2101 C.3       12 UNK         0.0230 
     16 S16        26.2886   26.5660    5.2794 S.3       12 UNK        -0.2608 
     17 C17        26.8489   28.1235    4.5099 C.3       12 UNK        -0.0989 
     18 CA         27.0821   27.9523    2.9814 C.3       5 UNK         0.0716 
     19 N          25.8493   27.7019    2.2176 N.am      5 UNK        -0.4135 
     20 C          24.8076   28.5413    2.0801 C.2       4 UNK         0.5031 
     21 O          24.7217   29.6218    2.6652 O.2       4 UNK        -0.5229 
     22 CA         23.6846   28.1592    1.0923 C.3       4 UNK         0.0329 
     23 CB         23.6062   29.1842   -0.0534 C.3       4 UNK        -0.2001 
     24 N          23.8339   26.8256    0.5088 N.am      4 UNK        -0.4303 
     25 C          23.5543   25.6737    1.1316 C.2       3 UNK         0.5044 
     26 O          23.0507   25.6062    2.2530 O.2       3 UNK        -0.5152 
     27 CA         23.9210   24.3746    0.3880 C.3       3 UNK         0.0319 
     28 CB         22.6736   23.7689   -0.2758 C.3       3 UNK        -0.2001 
     29 N          24.9855   24.5069   -0.6193 N.am      3 UNK        -0.4354 
     30 C          26.2359   24.9244   -0.3765 C.2       2 UNK         0.4964 
     31 O          26.6160   25.3720    0.7081 O.2       2 UNK        -0.5047 
     32 CA         27.2312   24.8616   -1.5377 C.3       2 UNK         0.0288 
     33 CB         27.5489   26.2731   -2.0619 C.3       2 UNK        -0.2113 
     34 N          28.4469   24.2581   -1.0071 N.am      2 UNK        -0.4145 
     35 C          29.0468   23.1601   -1.4778 C.2       1 UNK         0.5006 
     36 O          28.7115   22.5816   -2.5159 O.2       1 UNK        -0.5103 
     37 C          27.9088   29.0956    2.3473 C.2       5 UNK         0.5055 
     38 O          28.5488   29.8729    3.0564 O.2       5 UNK        -0.5220 
     39 N          27.8747   29.1693    1.0089 N.am      6 UNK        -0.4450 
     40 CA         28.5049   30.2069    0.1885 C.3       6 UNK         0.0367 
     41 CB         27.4740   30.6941   -0.8465 C.3       6 UNK        -0.1929 
     42 C          29.7932   29.7179   -0.5002 C.2       6 UNK         0.5070 
     43 O          30.3010   30.4076   -1.3848 O.2       6 UNK        -0.5237 
     44 N          30.2990   28.5391   -0.1076 N.am      7 UNK        -0.4739 
     45 CA         31.4976   27.9062   -0.6738 C.3       7 UNK         0.0276 
     46 CB         31.5684   26.4512   -0.1863 C.3       7 UNK        -0.1927 
     47 C          32.8132   28.6464   -0.3609 C.2       7 UNK         0.5013 
     48 O          33.7977   28.4556   -1.0759 O.2       7 UNK        -0.5193 
     49 N          32.8055   29.4755    0.6865 N.am      8 UNK        -0.4253 
     50 CA         33.8868   30.3553    1.1133 C.3       8 UNK         0.0242 
     51 CB         34.9208   29.5657    1.9385 C.3       8 UNK        -0.2000 
     52 C          33.2621   31.4876    1.9373 C.2       8 UNK         0.4948 
     53 O          32.0774   31.4119    2.2765 O.2       8 UNK        -0.5275 
     54 N          34.0695   32.5056    2.2660 N.am      9 UNK        -0.4246 
     55 CA         33.6708   33.6380    3.1123 C.3       9 UNK         0.0261 
     56 CB         34.7793   34.7033    3.1006 C.3       9 UNK        -0.1959 
     57 C          33.3280   33.2300    4.5582 C.2       9 UNK         0.5033 
     58 O          32.4521   33.8452    5.1684 O.2       9 UNK        -0.5390 
     59 N          34.0062   32.1944    5.0645 N.am      10 UNK        -0.4215 
     60 CA         33.7622   31.5420    6.3446 C.3       10 UNK         0.0240 
     61 CB         34.3299   32.3876    7.5007 C.3       10 UNK        -0.1982 
     62 C          34.4259   30.1618    6.2980 C.2       10 UNK         0.4970 
     63 O          35.4434   30.0070    5.6170 O.2       10 UNK        -0.4916 
     64 N          33.8526   29.2068    7.0358 N.am      11 UNK        -0.4279 
     65 CA         34.3698   27.8383    7.2147 C.3       11 UNK         0.1003 
     66 C          34.5281   27.4494    8.7149 C.2       11 UNK         0.5709 
     67 N          34.3892   28.3698    9.6634 N.am      11 UNK        -0.7358 
     68 O          34.8061   26.2951    9.0320 O.2       11 UNK        -0.4999 
     69 C69        33.5325   26.7957    6.4216 C.3       12 UNK        -0.0954 
     70 S70        33.7523   26.9451    4.6167 S.3       12 UNK        -0.2268 
     71 C71        32.1188   27.5337    4.0700 C.3       12 UNK         0.0203 
     72 H72        32.6896   20.3956   -2.8456 H         1 UNK         0.0888 
     73 H73        33.9570   21.6235   -2.8565 H         1 UNK         0.0888 
     74 H74        32.7364   21.6022   -4.1325 H         1 UNK         0.0888 
     75 H75        31.0585   20.8310   -1.3772 H         1 UNK         0.3017 
     76 H76        30.7321   23.4327   -0.1707 H         1 UNK         0.0873 
     77 H77        30.4494   21.1431    1.0148 H         1 UNK         0.0745 
     78 H78        28.9210   20.9884    0.1991 H         1 UNK         0.0745 
     79 H79        30.2158   22.1372    3.7698 H         1 UNK         0.0705 
     80 H80        31.1775   22.8826    2.5142 H         1 UNK         0.0705 
     81 H81        31.9414   25.0682    2.9247 H         1 UNK         0.1334 
     82 H82        29.9008   27.6699    5.6466 H         1 UNK         0.1417 
     83 H83        28.2757   23.8002    4.7584 H         1 UNK         0.1562 
     84 H84        28.0249   26.8256    6.9396 H         1 UNK         0.0748 
     85 H85        27.5336   25.1597    6.7870 H         1 UNK         0.0748 
     86 H86        27.7550   28.4560    5.0160 H         1 UNK         0.0940 
     87 H87        26.1113   28.9004    4.7122 H         1 UNK         0.0940 
     88 H88        27.6982   27.0614    2.8452 H         1 UNK         0.0703 
     89 H89        25.8456   26.8258    1.7023 H         1 UNK         0.3081 
     90 H90        22.7437   28.1933    1.6458 H         1 UNK         0.0719 
     91 H91        24.5237   29.2038   -0.6428 H         1 UNK         0.0809 
     92 H92        22.7779   28.9641   -0.7272 H         1 UNK         0.0809 
     93 H93        23.4457   30.1924    0.3312 H         1 UNK         0.0809 
     94 H94        24.2309   26.7758   -0.4179 H         1 UNK         0.2990 
     95 H95        24.2799   23.6711    1.1423 H         1 UNK         0.0690 
     96 H96        22.8875   22.7909   -0.7077 H         1 UNK         0.0788 
     97 H97        22.2864   24.4105   -1.0684 H         1 UNK         0.0788 
     98 H98        21.8719   23.6296    0.4512 H         1 UNK         0.0788 
     99 H99        24.7585   24.1795   -1.5478 H         1 UNK         0.2993 
    100 H100       26.8137   24.2577   -2.3465 H         1 UNK         0.0949 
    101 H101       27.9668   26.9121   -1.2834 H         1 UNK         0.0767 
    102 H102       28.2701   26.2345   -2.8786 H         1 UNK         0.0767 
    103 H103       26.6517   26.7617   -2.4439 H         1 UNK         0.0767 
    104 H104       28.7011   24.5836   -0.0830 H         1 UNK         0.3013 
    105 H105       27.3357   28.4749    0.5125 H         1 UNK         0.3121 
    106 H106       28.7849   31.0577    0.8135 H         1 UNK         0.0774 
    107 H107       27.1924   29.9018   -1.5412 H         1 UNK         0.0815 
    108 H108       26.5664   31.0546   -0.3616 H         1 UNK         0.0815 
    109 H109       27.8700   31.5207   -1.4380 H         1 UNK         0.0815 
    110 H110       29.8285   28.0445    0.6353 H         1 UNK         0.2987 
    111 H111       31.3886   27.8961   -1.7607 H         1 UNK         0.0949 
    112 H112       30.6866   25.8925   -0.4947 H         1 UNK         0.0806 
    113 H113       32.4350   25.9385   -0.6068 H         1 UNK         0.0806 
    114 H114       31.6480   26.3922    0.8987 H         1 UNK         0.0806 
    115 H115       31.9366   29.6353    1.1830 H         1 UNK         0.3010 
    116 H116       34.3638   30.7890    0.2317 H         1 UNK         0.0829 
    117 H117       35.7794   30.1860    2.1970 H         1 UNK         0.0813 
    118 H118       35.3019   28.7054    1.3882 H         1 UNK         0.0813 
    119 H119       34.4930   29.2013    2.8723 H         1 UNK         0.0813 
    120 H120       35.0250   32.4980    1.9376 H         1 UNK         0.3038 
    121 H121       32.7710   34.0775    2.6760 H         1 UNK         0.0769 
    122 H122       34.9710   35.0668    2.0908 H         1 UNK         0.0811 
    123 H123       35.7165   34.3178    3.5041 H         1 UNK         0.0811 
    124 H124       34.4958   35.5664    3.7047 H         1 UNK         0.0811 
    125 H125       34.7076   31.7329    4.4982 H         1 UNK         0.3204 
    126 H126       32.6852   31.4137    6.4736 H         1 UNK         0.0748 
    127 H127       34.1692   31.8982    8.4619 H         1 UNK         0.0771 
    128 H128       35.4032   32.5487    7.3904 H         1 UNK         0.0771 
    129 H129       33.8501   33.3649    7.5546 H         1 UNK         0.0771 
    130 H130       33.0180   29.4239    7.5612 H         1 UNK         0.2980 
    131 H131       35.3915   27.7935    6.8333 H         1 UNK         0.0545 
    132 H132       34.2163   29.3342    9.4336 H         1 UNK         0.3459 
    133 H133       34.5038   28.0969   10.6270 H         1 UNK         0.3459 
    134 H134       32.4771   26.8735    6.6854 H         1 UNK         0.0616 
    135 H135       33.8307   25.7778    6.6778 H         1 UNK         0.0616 
    136 H136       31.8761   28.4564    4.5997 H         1 UNK         0.0634 
    137 H137       32.1761   27.7931    3.0126 H         1 UNK         0.0634 
@<TRIPOS>BOND
     1    1    2 1    
     2    1   72 1    
     3    1   73 1    
     4    1   74 1    
     5    2    3 2    
     6    2    4 am   BACKBONE|DICT|INTERRES
     7    4    5 1    
     8    4   75 1    
     9    5    6 1    
    10    5   35 1    
    11    5   76 1    
    12    6    7 1    
    13    6   77 1    
    14    6   78 1    
    15    7    8 1    
    16    8    9 1    
    17    8   79 1    
    18    8   80 1    
    19    9   10 ar   
    20    9   14 ar   
    21   10   11 ar   
    22   10   81 1    
    23   11   12 ar   
    24   11   71 1    
    25   12   13 ar   
    26   12   82 1    
    27   13   14 ar   
    28   13   15 1    
    29   14   83 1    
    30   15   16 1    
    31   15   84 1    
    32   15   85 1    
    33   16   17 1    
    34   17   18 1    
    35   17   86 1    
    36   17   87 1    
    37   18   19 1    
    38   18   37 1    
    39   18   88 1    
    40   19   20 am   BACKBONE|DICT|INTERRES
    41   19   89 1    
    42   20   21 2    
    43   20   22 1    
    44   22   23 1    
    45   22   24 1    
    46   22   90 1    
    47   23   91 1    
    48   23   92 1    
    49   23   93 1    
    50   24   25 am   BACKBONE|DICT|INTERRES
    51   24   94 1    
    52   25   26 2    
    53   25   27 1    
    54   27   28 1    
    55   27   29 1    
    56   27   95 1    
    57   28   96 1    
    58   28   97 1    
    59   28   98 1    
    60   29   30 am   BACKBONE|DICT|INTERRES
    61   29   99 1    
    62   30   31 2    
    63   30   32 1    
    64   32   33 1    
    65   32   34 1    
    66   32  100 1    
    67   33  101 1    
    68   33  102 1    
    69   33  103 1    
    70   34   35 am   BACKBONE|DICT|INTERRES
    71   34  104 1    
    72   35   36 2    
    73   37   38 2    
    74   37   39 am   BACKBONE|DICT|INTERRES
    75   39   40 1    
    76   39  105 1    
    77   40   41 1    
    78   40   42 1    
    79   40  106 1    
    80   41  107 1    
    81   41  108 1    
    82   41  109 1    
    83   42   43 2    
    84   42   44 am   BACKBONE|DICT|INTERRES
    85   44   45 1    
    86   44  110 1    
    87   45   46 1    
    88   45   47 1    
    89   45  111 1    
    90   46  112 1    
    91   46  113 1    
    92   46  114 1    
    93   47   48 2    
    94   47   49 am   BACKBONE|DICT|INTERRES
    95   49   50 1    
    96   49  115 1    
    97   50   51 1    
    98   50   52 1    
    99   50  116 1    
   100   51  117 1    
   101   51  118 1    
   102   51  119 1    
   103   52   53 2    
   104   52   54 am   BACKBONE|DICT|INTERRES
   105   54   55 1    
   106   54  120 1    
   107   55   56 1    
   108   55   57 1    
   109   55  121 1    
   110   56  122 1    
   111   56  123 1    
   112   56  124 1    
   113   57   58 2    
   114   57   59 am   BACKBONE|DICT|INTERRES
   115   59   60 1    
   116   59  125 1    
   117   60   61 1    
   118   60   62 1    
   119   60  126 1    
   120   61  127 1    
   121   61  128 1    
   122   61  129 1    
   123   62   63 2    
   124   62   64 am   BACKBONE|DICT|INTERRES
   125   64   65 1    
   126   64  130 1    
   127   65   66 1    
   128   65   69 1    
   129   65  131 1    
   130   66   67 am   BACKBONE|DICT|INTERRES
   131   66   68 2    
   132   67  132 1    
   133   67  133 1    
   134   69   70 1    
   135   69  134 1    
   136   69  135 1    
   137   70   71 1    
   138   71  136 1    
   139   71  137 1    
@<TRIPOS>SUBSTRUCTURE
     1 UNK         1 GROUP             0       ****    0 ROOT    
