@<TRIPOS>MOLECULE
3R136
137   139    1
SMALL
USER_CHARGES


@<TRIPOS>ATOM
      1 CA         29.8930   31.2521   -1.4952 C.3       0 UNK        -0.1979 
      2 C          29.7594   29.7384   -1.5753 C.2       0 UNK         0.4864 
      3 O          30.3492   29.1232   -2.4640 O.2       0 UNK        -0.5359 
      4 N          28.9813   29.1465   -0.6563 N.am      1 UNK        -0.4318 
      5 CA         28.7406   27.7001   -0.5134 C.3       1 UNK         0.0824 
      6 C6         30.0115   26.8875   -0.1362 C.3       12 UNK        -0.0944 
      7 S7         30.7867   27.5270    1.3822 S.3       12 UNK        -0.2672 
      8 C8         32.1411   26.3430    1.6692 C.3       12 UNK         0.0333 
      9 C9         31.9058   25.5446    2.9419 C.ar      12 UNK        -0.0807 
     10 C10        32.0115   26.1762    4.1848 C.ar      12 UNK        -0.0894 
     11 C11        31.7379   25.4807    5.3666 C.ar      12 UNK        -0.0804 
     12 C12        31.3666   24.1361    5.2935 C.ar      12 UNK        -0.0824 
     13 C13        31.2631   23.4890    4.0588 C.ar      12 UNK        -0.0762 
     14 C14        31.5556   24.1922    2.8851 C.ar      12 UNK        -0.0782 
     15 C15        30.7996   22.0384    4.0078 C.3       12 UNK         0.0230 
     16 S16        29.2715   21.7932    3.0383 S.3       12 UNK        -0.2608 
     17 C17        28.1942   23.1868    3.5359 C.3       12 UNK        -0.0989 
     18 CA         28.0571   24.2651    2.4246 C.3       5 UNK         0.0716 
     19 N          27.3857   23.7545    1.2306 N.am      5 UNK        -0.4135 
     20 C          27.9806   23.3056    0.1204 C.2       4 UNK         0.5031 
     21 O          29.2016   23.2496   -0.0306 O.2       4 UNK        -0.5229 
     22 CA         27.0730   22.8415   -1.0336 C.3       4 UNK         0.0329 
     23 CB         26.5746   21.3998   -0.8114 C.3       4 UNK        -0.2001 
     24 N          25.9739   23.7644   -1.3490 N.am      4 UNK        -0.4303 
     25 C          24.8872   24.0742   -0.6276 C.2       3 UNK         0.5044 
     26 O          24.6219   23.5527    0.4562 O.2       3 UNK        -0.5152 
     27 CA         23.9749   25.1845   -1.1914 C.3       3 UNK         0.0319 
     28 CB         23.0260   25.7606   -0.1233 C.3       3 UNK        -0.2001 
     29 N          24.7586   26.2827   -1.7651 N.am      3 UNK        -0.4354 
     30 C          25.1990   26.3501   -3.0293 C.2       2 UNK         0.4964 
     31 O          24.9330   25.5124   -3.8906 O.2       2 UNK        -0.5047 
     32 CA         26.1464   27.5134   -3.3718 C.3       2 UNK         0.0288 
     33 CB         25.3500   28.7412   -3.8420 C.3       2 UNK        -0.2113 
     34 N          27.0194   27.8953   -2.2558 N.am      2 UNK        -0.4145 
     35 C          27.9720   27.1139   -1.7195 C.2       1 UNK         0.5006 
     36 O          28.2273   25.9810   -2.1311 O.2       1 UNK        -0.5103 
     37 C          27.2558   25.4773    2.9238 C.2       5 UNK         0.5055 
     38 O          26.0250   25.4636    2.8448 O.2       5 UNK        -0.5220 
     39 N          27.9527   26.4949    3.4396 N.am      6 UNK        -0.4450 
     40 CA         27.3874   27.7200    4.0035 C.3       6 UNK         0.0367 
     41 CB         26.8984   28.6531    2.8772 C.3       6 UNK        -0.1929 
     42 C          28.4737   28.4112    4.8348 C.2       6 UNK         0.5070 
     43 O          29.6454   28.0540    4.7226 O.2       6 UNK        -0.5237 
     44 N          28.0944   29.4267    5.6188 N.am      7 UNK        -0.4739 
     45 CA         29.0250   30.2947    6.3505 C.3       7 UNK         0.0276 
     46 CB         28.2837   30.9349    7.5390 C.3       7 UNK        -0.1927 
     47 C          29.6567   31.3406    5.4077 C.2       7 UNK         0.5013 
     48 O          29.4090   32.5390    5.5565 O.2       7 UNK        -0.5193 
     49 N          30.4184   30.8596    4.4210 N.am      8 UNK        -0.4253 
     50 CA         31.0360   31.6330    3.3495 C.3       8 UNK         0.0242 
     51 CB         30.0042   31.8545    2.2263 C.3       8 UNK        -0.2000 
     52 C          32.2674   30.8802    2.8310 C.2       8 UNK         0.4948 
     53 O          32.5259   29.7546    3.2665 O.2       8 UNK        -0.5275 
     54 N          33.0052   31.5197    1.9100 N.am      9 UNK        -0.4246 
     55 CA         34.2005   31.0095    1.2256 C.3       9 UNK         0.0261 
     56 CB         33.8039   29.9362    0.1857 C.3       9 UNK        -0.1959 
     57 C          35.2723   30.5486    2.2316 C.2       9 UNK         0.5033 
     58 O          35.8570   31.3957    2.9094 O.2       9 UNK        -0.5390 
     59 N          35.4665   29.2284    2.3575 N.am      10 UNK        -0.4215 
     60 CA         36.3385   28.5807    3.3433 C.3       10 UNK         0.0240 
     61 CB         36.3301   27.0628    3.0967 C.3       10 UNK        -0.1982 
     62 C          35.9680   28.8829    4.8092 C.2       10 UNK         0.4970 
     63 O          36.8542   28.8554    5.6644 O.2       10 UNK        -0.4916 
     64 N          34.6880   29.1775    5.0639 N.am      11 UNK        -0.4279 
     65 CA         34.1479   29.6057    6.3605 C.3       11 UNK         0.1003 
     66 C          33.8582   31.1352    6.4151 C.2       11 UNK         0.5709 
     67 N          34.3174   31.9435    5.4650 N.am      11 UNK        -0.7358 
     68 O          33.2225   31.6105    7.3529 O.2       11 UNK        -0.4999 
     69 C69        32.9121   28.7553    6.7551 C.3       12 UNK        -0.0954 
     70 S70        33.3536   27.0111    7.0603 S.3       12 UNK        -0.2268 
     71 C71        31.7700   26.1811    6.7209 C.3       12 UNK         0.0203 
     72 H72        29.7289   31.6967   -2.4764 H         1 UNK         0.0888 
     73 H73        29.1728   31.6897   -0.8043 H         1 UNK         0.0888 
     74 H74        30.8945   31.5219   -1.1615 H         1 UNK         0.0888 
     75 H75        28.5314   29.7241    0.0386 H         1 UNK         0.3017 
     76 H76        28.0483   27.5954    0.3224 H         1 UNK         0.0873 
     77 H77        30.7435   26.9082   -0.9451 H         1 UNK         0.0745 
     78 H78        29.7635   25.8395    0.0312 H         1 UNK         0.0745 
     79 H79        32.2582   25.6835    0.8080 H         1 UNK         0.0705 
     80 H80        33.0761   26.8956    1.7642 H         1 UNK         0.0705 
     81 H81        32.2639   27.2268    4.2262 H         1 UNK         0.1334 
     82 H82        31.1323   23.5970    6.2013 H         1 UNK         0.1417 
     83 H83        31.4584   23.6972    1.9275 H         1 UNK         0.1562 
     84 H84        30.6305   21.6516    5.0139 H         1 UNK         0.0748 
     85 H85        31.5925   21.4262    3.5762 H         1 UNK         0.0748 
     86 H86        28.5735   23.6255    4.4602 H         1 UNK         0.0940 
     87 H87        27.2130   22.7789    3.7862 H         1 UNK         0.0940 
     88 H88        29.0447   24.6299    2.1433 H         1 UNK         0.0703 
     89 H89        26.3689   23.7942    1.2535 H         1 UNK         0.3081 
     90 H90        27.6978   22.8315   -1.9284 H         1 UNK         0.0719 
     91 H91        25.9866   21.0479   -1.6588 H         1 UNK         0.0809 
     92 H92        25.9605   21.3102    0.0850 H         1 UNK         0.0809 
     93 H93        27.4157   20.7154   -0.6927 H         1 UNK         0.0809 
     94 H94        26.1029   24.2834   -2.2081 H         1 UNK         0.2990 
     95 H95        23.3613   24.7293   -1.9717 H         1 UNK         0.0690 
     96 H96        22.3873   26.5407   -0.5381 H         1 UNK         0.0788 
     97 H97        23.5763   26.1865    0.7172 H         1 UNK         0.0788 
     98 H98        22.3691   24.9866    0.2759 H         1 UNK         0.0788 
     99 H99        25.0460   27.0074   -1.1238 H         1 UNK         0.2993 
    100 H100       26.7847   27.1828   -4.1944 H         1 UNK         0.0949 
    101 H101       24.7092   28.4892   -4.6883 H         1 UNK         0.0767 
    102 H102       24.7079   29.1351   -3.0530 H         1 UNK         0.0767 
    103 H103       26.0130   29.5429   -4.1682 H         1 UNK         0.0767 
    104 H104       26.8908   28.8218   -1.8758 H         1 UNK         0.3013 
    105 H105       28.9655   26.4529    3.5130 H         1 UNK         0.3121 
    106 H106       26.5567   27.4594    4.6625 H         1 UNK         0.0774 
    107 H107       26.4181   29.5430    3.2851 H         1 UNK         0.0815 
    108 H108       27.7276   28.9906    2.2552 H         1 UNK         0.0815 
    109 H109       26.1675   28.1642    2.2333 H         1 UNK         0.0815 
    110 H110       27.1198   29.6917    5.6391 H         1 UNK         0.2987 
    111 H111       29.8386   29.6891    6.7565 H         1 UNK         0.0949 
    112 H112       28.9533   31.5740    8.1163 H         1 UNK         0.0806 
    113 H113       27.4461   31.5515    7.2107 H         1 UNK         0.0806 
    114 H114       27.8963   30.1764    8.2193 H         1 UNK         0.0806 
    115 H115       30.5826   29.8561    4.3689 H         1 UNK         0.3010 
    116 H116       31.3701   32.5942    3.7457 H         1 UNK         0.0829 
    117 H117       29.1154   32.3655    2.5966 H         1 UNK         0.0813 
    118 H118       30.4128   32.4678    1.4229 H         1 UNK         0.0813 
    119 H119       29.6870   30.9066    1.7902 H         1 UNK         0.0813 
    120 H120       32.7368   32.4608    1.6591 H         1 UNK         0.3038 
    121 H121       34.6356   31.8496    0.6822 H         1 UNK         0.0769 
    122 H122       34.6783   29.5474   -0.3381 H         1 UNK         0.0811 
    123 H123       33.1424   30.3558   -0.5721 H         1 UNK         0.0811 
    124 H124       33.2799   29.0941    0.6368 H         1 UNK         0.0811 
    125 H125       34.9061   28.6188    1.7809 H         1 UNK         0.3204 
    126 H126       37.3518   28.9530    3.1794 H         1 UNK         0.0748 
    127 H127       36.9996   26.5516    3.7901 H         1 UNK         0.0771 
    128 H128       35.3345   26.6375    3.2343 H         1 UNK         0.0771 
    129 H129       36.6650   26.8200    2.0881 H         1 UNK         0.0771 
    130 H130       34.0239   29.2210    4.2943 H         1 UNK         0.2980 
    131 H131       34.9022   29.4490    7.1333 H         1 UNK         0.0545 
    132 H132       34.8734   31.5914    4.6943 H         1 UNK         0.3459 
    133 H133       34.1337   32.9310    5.5377 H         1 UNK         0.3459 
    134 H134       32.1500   28.8154    5.9765 H         1 UNK         0.0616 
    135 H135       32.4494   29.1310    7.6692 H         1 UNK         0.0616 
    136 H136       31.5982   25.4621    7.5231 H         1 UNK         0.0634 
    137 H137       30.9478   26.8949    6.7790 H         1 UNK         0.0634 
@<TRIPOS>BOND
     1    1    2 1    
     2    1   72 1    
     3    1   73 1    
     4    1   74 1    
     5    2    3 2    
     6    2    4 am   BACKBONE|DICT|INTERRES
     7    4    5 1    
     8    4   75 1    
     9    5    6 1    
    10    5   35 1    
    11    5   76 1    
    12    6    7 1    
    13    6   77 1    
    14    6   78 1    
    15    7    8 1    
    16    8    9 1    
    17    8   79 1    
    18    8   80 1    
    19    9   10 ar   
    20    9   14 ar   
    21   10   11 ar   
    22   10   81 1    
    23   11   12 ar   
    24   11   71 1    
    25   12   13 ar   
    26   12   82 1    
    27   13   14 ar   
    28   13   15 1    
    29   14   83 1    
    30   15   16 1    
    31   15   84 1    
    32   15   85 1    
    33   16   17 1    
    34   17   18 1    
    35   17   86 1    
    36   17   87 1    
    37   18   19 1    
    38   18   37 1    
    39   18   88 1    
    40   19   20 am   BACKBONE|DICT|INTERRES
    41   19   89 1    
    42   20   21 2    
    43   20   22 1    
    44   22   23 1    
    45   22   24 1    
    46   22   90 1    
    47   23   91 1    
    48   23   92 1    
    49   23   93 1    
    50   24   25 am   BACKBONE|DICT|INTERRES
    51   24   94 1    
    52   25   26 2    
    53   25   27 1    
    54   27   28 1    
    55   27   29 1    
    56   27   95 1    
    57   28   96 1    
    58   28   97 1    
    59   28   98 1    
    60   29   30 am   BACKBONE|DICT|INTERRES
    61   29   99 1    
    62   30   31 2    
    63   30   32 1    
    64   32   33 1    
    65   32   34 1    
    66   32  100 1    
    67   33  101 1    
    68   33  102 1    
    69   33  103 1    
    70   34   35 am   BACKBONE|DICT|INTERRES
    71   34  104 1    
    72   35   36 2    
    73   37   38 2    
    74   37   39 am   BACKBONE|DICT|INTERRES
    75   39   40 1    
    76   39  105 1    
    77   40   41 1    
    78   40   42 1    
    79   40  106 1    
    80   41  107 1    
    81   41  108 1    
    82   41  109 1    
    83   42   43 2    
    84   42   44 am   BACKBONE|DICT|INTERRES
    85   44   45 1    
    86   44  110 1    
    87   45   46 1    
    88   45   47 1    
    89   45  111 1    
    90   46  112 1    
    91   46  113 1    
    92   46  114 1    
    93   47   48 2    
    94   47   49 am   BACKBONE|DICT|INTERRES
    95   49   50 1    
    96   49  115 1    
    97   50   51 1    
    98   50   52 1    
    99   50  116 1    
   100   51  117 1    
   101   51  118 1    
   102   51  119 1    
   103   52   53 2    
   104   52   54 am   BACKBONE|DICT|INTERRES
   105   54   55 1    
   106   54  120 1    
   107   55   56 1    
   108   55   57 1    
   109   55  121 1    
   110   56  122 1    
   111   56  123 1    
   112   56  124 1    
   113   57   58 2    
   114   57   59 am   BACKBONE|DICT|INTERRES
   115   59   60 1    
   116   59  125 1    
   117   60   61 1    
   118   60   62 1    
   119   60  126 1    
   120   61  127 1    
   121   61  128 1    
   122   61  129 1    
   123   62   63 2    
   124   62   64 am   BACKBONE|DICT|INTERRES
   125   64   65 1    
   126   64  130 1    
   127   65   66 1    
   128   65   69 1    
   129   65  131 1    
   130   66   67 am   BACKBONE|DICT|INTERRES
   131   66   68 2    
   132   67  132 1    
   133   67  133 1    
   134   69   70 1    
   135   69  134 1    
   136   69  135 1    
   137   70   71 1    
   138   71  136 1    
   139   71  137 1    
@<TRIPOS>SUBSTRUCTURE
     1 UNK         1 GROUP             0       ****    0 ROOT    
