@<TRIPOS>MOLECULE
3R136
137   139    1
SMALL
USER_CHARGES


@<TRIPOS>ATOM
      1 CA         34.1570   20.8061   -1.3027 C.3       0 UNK        -0.1979 
      2 C          33.2939   21.8116   -0.5547 C.2       0 UNK         0.4864 
      3 O          33.7778   22.8872   -0.1999 O.2       0 UNK        -0.5359 
      4 N          32.0245   21.4651   -0.3066 N.am      1 UNK        -0.4318 
      5 CA         31.0353   22.3143    0.3644 C.3       1 UNK         0.0824 
      6 C6         29.7698   21.5137    0.7708 C.3       12 UNK        -0.0944 
      7 S7         30.1507   20.1182    1.8866 S.3       12 UNK        -0.2672 
      8 C8         29.2551   20.5753    3.4137 C.3       12 UNK         0.0333 
      9 C9         29.6553   21.9258    4.0058 C.ar      12 UNK        -0.0807 
     10 C10        30.9788   22.3804    3.9583 C.ar      12 UNK        -0.0894 
     11 C11        31.3168   23.6365    4.4646 C.ar      12 UNK        -0.0804 
     12 C12        30.3401   24.4126    5.0900 C.ar      12 UNK        -0.0824 
     13 C13        29.0136   23.9770    5.1436 C.ar      12 UNK        -0.0762 
     14 C14        28.6784   22.7314    4.6034 C.ar      12 UNK        -0.0782 
     15 C15        27.9411   24.8723    5.7511 C.3       12 UNK         0.0230 
     16 S16        27.0524   25.8264    4.4747 S.3       12 UNK        -0.2608 
     17 C17        28.4233   26.7563    3.7049 C.3       12 UNK        -0.0989 
     18 CA         28.0638   28.1591    3.1663 C.3       5 UNK         0.0716 
     19 N          26.9955   28.1411    2.1684 N.am      5 UNK        -0.4135 
     20 C          26.6836   29.1912    1.3993 C.2       4 UNK         0.5031 
     21 O          27.2787   30.2707    1.4458 O.2       4 UNK        -0.5229 
     22 CA         25.6017   28.9598    0.3427 C.3       4 UNK         0.0329 
     23 CB         25.0564   30.2676   -0.2618 C.3       4 UNK        -0.2001 
     24 N          26.2172   28.1543   -0.7038 N.am      4 UNK        -0.4303 
     25 C          25.6713   27.0828   -1.2860 C.2       3 UNK         0.5044 
     26 O          24.5135   26.7077   -1.0965 O.2       3 UNK        -0.5152 
     27 CA         26.5833   26.2786   -2.2305 C.3       3 UNK         0.0319 
     28 CB         26.4022   26.7520   -3.6819 C.3       3 UNK        -0.2001 
     29 N          28.0099   26.3277   -1.8787 N.am      3 UNK        -0.4354 
     30 C          28.5388   25.8321   -0.7502 C.2       2 UNK         0.4964 
     31 O          27.8740   25.3428    0.1658 O.2       2 UNK        -0.5047 
     32 CA         30.0699   25.9069   -0.6171 C.3       2 UNK         0.0288 
     33 CB         30.5020   27.1530    0.1736 C.3       2 UNK        -0.2113 
     34 N          30.5870   24.7090    0.0465 N.am      2 UNK        -0.4145 
     35 C          30.6448   23.5030   -0.5342 C.2       1 UNK         0.5006 
     36 O          30.3758   23.3007   -1.7223 O.2       1 UNK        -0.5103 
     37 C          27.8095   29.1930    4.2825 C.2       5 UNK         0.5055 
     38 O          26.6722   29.3591    4.7289 O.2       5 UNK        -0.5220 
     39 N          28.8864   29.8952    4.6564 N.am      6 UNK        -0.4450 
     40 CA         28.9662   31.0551    5.5523 C.3       6 UNK         0.0367 
     41 CB         28.3384   30.7712    6.9326 C.3       6 UNK        -0.1929 
     42 C          28.4507   32.3708    4.9335 C.2       6 UNK         0.5070 
     43 O          28.5960   33.4130    5.5735 O.2       6 UNK        -0.5237 
     44 N          27.9050   32.3306    3.7093 N.am      7 UNK        -0.4739 
     45 CA         27.5135   33.5070    2.9306 C.3       7 UNK         0.0276 
     46 CB         26.0525   33.3700    2.4686 C.3       7 UNK        -0.1927 
     47 C          28.4649   33.6865    1.7403 C.2       7 UNK         0.5013 
     48 O          29.0630   34.7541    1.6025 O.2       7 UNK        -0.5193 
     49 N          28.6063   32.6386    0.9160 N.am      8 UNK        -0.4253 
     50 CA         29.5195   32.5979   -0.2283 C.3       8 UNK         0.0242 
     51 CB         29.0803   31.4877   -1.1984 C.3       8 UNK        -0.2000 
     52 C          30.9782   32.3921    0.2082 C.2       8 UNK         0.4948 
     53 O          31.8676   33.0752   -0.3008 O.2       8 UNK        -0.5275 
     54 N          31.1897   31.4660    1.1496 N.am      9 UNK        -0.4246 
     55 CA         32.4711   31.1286    1.7604 C.3       9 UNK         0.0261 
     56 CB         33.3289   30.2915    0.7927 C.3       9 UNK        -0.1959 
     57 C          32.1811   30.3393    3.0387 C.2       9 UNK         0.5033 
     58 O          31.1575   29.6538    3.1040 O.2       9 UNK        -0.5390 
     59 N          33.0737   30.4386    4.0296 N.am      10 UNK        -0.4215 
     60 CA         32.9719   29.6915    5.2875 C.3       10 UNK         0.0240 
     61 CB         33.7572   30.4265    6.3860 C.3       10 UNK        -0.1982 
     62 C          33.4556   28.2368    5.1581 C.2       10 UNK         0.4970 
     63 O          32.9162   27.3718    5.8474 O.2       10 UNK        -0.4916 
     64 N          34.4662   28.0161    4.3007 N.am      11 UNK        -0.4279 
     65 CA         35.1541   26.7418    4.0065 C.3       11 UNK         0.1003 
     66 C          35.6808   25.9180    5.2245 C.2       11 UNK         0.5709 
     67 N          35.8877   26.5226    6.3879 N.am      11 UNK        -0.7358 
     68 O          35.9543   24.7257    5.1087 O.2       11 UNK        -0.4999 
     69 C69        34.4814   25.8962    2.8785 C.3       12 UNK        -0.0954 
     70 S70        32.7055   25.5278    3.0538 S.3       12 UNK        -0.2268 
     71 C71        32.7193   24.1896    4.2872 C.3       12 UNK         0.0203 
     72 H72        33.6077   19.8958   -1.5428 H         1 UNK         0.0888 
     73 H73        34.5167   21.2410   -2.2348 H         1 UNK         0.0888 
     74 H74        35.0211   20.5308   -0.6985 H         1 UNK         0.0888 
     75 H75        31.6798   20.5719   -0.6274 H         1 UNK         0.3017 
     76 H76        31.5034   22.7129    1.2658 H         1 UNK         0.0873 
     77 H77        29.0414   22.1708    1.2509 H         1 UNK         0.0745 
     78 H78        29.2710   21.1101   -0.1126 H         1 UNK         0.0745 
     79 H79        29.4294   19.8029    4.1636 H         1 UNK         0.0705 
     80 H80        28.1859   20.5589    3.1963 H         1 UNK         0.0705 
     81 H81        31.7427   21.7725    3.4938 H         1 UNK         0.1334 
     82 H82        30.6132   25.3799    5.4902 H         1 UNK         0.1417 
     83 H83        27.6498   22.3979    4.6371 H         1 UNK         0.1562 
     84 H84        28.3805   25.5601    6.4755 H         1 UNK         0.0748 
     85 H85        27.2233   24.2651    6.3046 H         1 UNK         0.0748 
     86 H86        28.8126   26.1403    2.8927 H         1 UNK         0.0940 
     87 H87        29.2445   26.8553    4.4150 H         1 UNK         0.0940 
     88 H88        28.9429   28.5031    2.6205 H         1 UNK         0.0703 
     89 H89        26.4823   27.2764    2.0752 H         1 UNK         0.3081 
     90 H90        24.7789   28.4206    0.8173 H         1 UNK         0.0719 
     91 H91        25.8414   30.8568   -0.7367 H         1 UNK         0.0809 
     92 H92        24.2920   30.0653   -1.0121 H         1 UNK         0.0809 
     93 H93        24.5982   30.8891    0.5079 H         1 UNK         0.0809 
     94 H94        27.1826   28.3668   -0.9113 H         1 UNK         0.2990 
     95 H95        26.2676   25.2347   -2.1715 H         1 UNK         0.0690 
     96 H96        26.9642   26.1278   -4.3770 H         1 UNK         0.0788 
     97 H97        26.7293   27.7841   -3.8147 H         1 UNK         0.0788 
     98 H98        25.3540   26.7018   -3.9807 H         1 UNK         0.0788 
     99 H99        28.6293   26.7149   -2.5766 H         1 UNK         0.2993 
    100 H100       30.5080   25.9637   -1.6162 H         1 UNK         0.0949 
    101 H101       30.1633   27.1134    1.2073 H         1 UNK         0.0767 
    102 H102       31.5877   27.2483    0.1901 H         1 UNK         0.0767 
    103 H103       30.1026   28.0660   -0.2698 H         1 UNK         0.0767 
    104 H104       30.8063   24.7953    1.0288 H         1 UNK         0.3013 
    105 H105       29.7569   29.6961    4.1583 H         1 UNK         0.3121 
    106 H106       30.0330   31.2143    5.7146 H         1 UNK         0.0774 
    107 H107       28.5715   31.5713    7.6361 H         1 UNK         0.0815 
    108 H108       27.2519   30.6990    6.8809 H         1 UNK         0.0815 
    109 H109       28.7191   29.8437    7.3600 H         1 UNK         0.0815 
    110 H110       27.8089   31.4351    3.2466 H         1 UNK         0.2987 
    111 H111       27.5814   34.4111    3.5399 H         1 UNK         0.0949 
    112 H112       25.7477   34.2361    1.8798 H         1 UNK         0.0806 
    113 H113       25.8954   32.4860    1.8518 H         1 UNK         0.0806 
    114 H114       25.3761   33.3035    3.3208 H         1 UNK         0.0806 
    115 H115       28.0670   31.7920    1.0992 H         1 UNK         0.3010 
    116 H116       29.4585   33.5527   -0.7554 H         1 UNK         0.0829 
    117 H117       28.0734   31.6678   -1.5743 H         1 UNK         0.0813 
    118 H118       29.7444   31.4397   -2.0625 H         1 UNK         0.0813 
    119 H119       29.0899   30.5058   -0.7241 H         1 UNK         0.0813 
    120 H120       30.4065   30.9507    1.5314 H         1 UNK         0.3038 
    121 H121       32.9940   32.0515    2.0202 H         1 UNK         0.0769 
    122 H122       32.8226   29.3700    0.5038 H         1 UNK         0.0811 
    123 H123       34.2794   30.0125    1.2489 H         1 UNK         0.0811 
    124 H124       33.5604   30.8440   -0.1179 H         1 UNK         0.0811 
    125 H125       33.8769   31.0407    3.9129 H         1 UNK         0.3204 
    126 H126       31.9246   29.6572    5.5949 H         1 UNK         0.0748 
    127 H127       33.6806   29.9001    7.3387 H         1 UNK         0.0771 
    128 H128       34.8174   30.5098    6.1435 H         1 UNK         0.0771 
    129 H129       33.3688   31.4330    6.5434 H         1 UNK         0.0771 
    130 H130       34.8340   28.8141    3.8068 H         1 UNK         0.2980 
    131 H131       36.0924   27.0773    3.5632 H         1 UNK         0.0545 
    132 H132       35.6708   27.4987    6.5044 H         1 UNK         0.3459 
    133 H133       36.2425   25.9870    7.1642 H         1 UNK         0.3459 
    134 H134       35.0186   24.9623    2.7053 H         1 UNK         0.0616 
    135 H135       34.5762   26.4458    1.9410 H         1 UNK         0.0616 
    136 H136       33.0800   24.5725    5.2423 H         1 UNK         0.0634 
    137 H137       33.4129   23.4083    3.9726 H         1 UNK         0.0634 
@<TRIPOS>BOND
     1    1    2 1    
     2    1   72 1    
     3    1   73 1    
     4    1   74 1    
     5    2    3 2    
     6    2    4 am   BACKBONE|DICT|INTERRES
     7    4    5 1    
     8    4   75 1    
     9    5    6 1    
    10    5   35 1    
    11    5   76 1    
    12    6    7 1    
    13    6   77 1    
    14    6   78 1    
    15    7    8 1    
    16    8    9 1    
    17    8   79 1    
    18    8   80 1    
    19    9   10 ar   
    20    9   14 ar   
    21   10   11 ar   
    22   10   81 1    
    23   11   12 ar   
    24   11   71 1    
    25   12   13 ar   
    26   12   82 1    
    27   13   14 ar   
    28   13   15 1    
    29   14   83 1    
    30   15   16 1    
    31   15   84 1    
    32   15   85 1    
    33   16   17 1    
    34   17   18 1    
    35   17   86 1    
    36   17   87 1    
    37   18   19 1    
    38   18   37 1    
    39   18   88 1    
    40   19   20 am   BACKBONE|DICT|INTERRES
    41   19   89 1    
    42   20   21 2    
    43   20   22 1    
    44   22   23 1    
    45   22   24 1    
    46   22   90 1    
    47   23   91 1    
    48   23   92 1    
    49   23   93 1    
    50   24   25 am   BACKBONE|DICT|INTERRES
    51   24   94 1    
    52   25   26 2    
    53   25   27 1    
    54   27   28 1    
    55   27   29 1    
    56   27   95 1    
    57   28   96 1    
    58   28   97 1    
    59   28   98 1    
    60   29   30 am   BACKBONE|DICT|INTERRES
    61   29   99 1    
    62   30   31 2    
    63   30   32 1    
    64   32   33 1    
    65   32   34 1    
    66   32  100 1    
    67   33  101 1    
    68   33  102 1    
    69   33  103 1    
    70   34   35 am   BACKBONE|DICT|INTERRES
    71   34  104 1    
    72   35   36 2    
    73   37   38 2    
    74   37   39 am   BACKBONE|DICT|INTERRES
    75   39   40 1    
    76   39  105 1    
    77   40   41 1    
    78   40   42 1    
    79   40  106 1    
    80   41  107 1    
    81   41  108 1    
    82   41  109 1    
    83   42   43 2    
    84   42   44 am   BACKBONE|DICT|INTERRES
    85   44   45 1    
    86   44  110 1    
    87   45   46 1    
    88   45   47 1    
    89   45  111 1    
    90   46  112 1    
    91   46  113 1    
    92   46  114 1    
    93   47   48 2    
    94   47   49 am   BACKBONE|DICT|INTERRES
    95   49   50 1    
    96   49  115 1    
    97   50   51 1    
    98   50   52 1    
    99   50  116 1    
   100   51  117 1    
   101   51  118 1    
   102   51  119 1    
   103   52   53 2    
   104   52   54 am   BACKBONE|DICT|INTERRES
   105   54   55 1    
   106   54  120 1    
   107   55   56 1    
   108   55   57 1    
   109   55  121 1    
   110   56  122 1    
   111   56  123 1    
   112   56  124 1    
   113   57   58 2    
   114   57   59 am   BACKBONE|DICT|INTERRES
   115   59   60 1    
   116   59  125 1    
   117   60   61 1    
   118   60   62 1    
   119   60  126 1    
   120   61  127 1    
   121   61  128 1    
   122   61  129 1    
   123   62   63 2    
   124   62   64 am   BACKBONE|DICT|INTERRES
   125   64   65 1    
   126   64  130 1    
   127   65   66 1    
   128   65   69 1    
   129   65  131 1    
   130   66   67 am   BACKBONE|DICT|INTERRES
   131   66   68 2    
   132   67  132 1    
   133   67  133 1    
   134   69   70 1    
   135   69  134 1    
   136   69  135 1    
   137   70   71 1    
   138   71  136 1    
   139   71  137 1    
@<TRIPOS>SUBSTRUCTURE
     1 UNK         1 GROUP             0       ****    0 ROOT    
