@<TRIPOS>MOLECULE
3R136
137   139    1
SMALL
USER_CHARGES


@<TRIPOS>ATOM
      1 CA         28.3510   26.3748    2.3631 C.3       0 UNK        -0.1979 
      2 C          28.3437   24.9062    2.7456 C.2       0 UNK         0.4864 
      3 O          27.4599   24.4781    3.4910 O.2       0 UNK        -0.5359 
      4 N          29.3092   24.1255    2.2404 N.am      1 UNK        -0.4318 
      5 CA         29.3105   22.6679    2.3653 C.3       1 UNK         0.0824 
      6 C6         30.7396   22.0590    2.3534 C.3       12 UNK        -0.0944 
      7 S7         31.6497   22.1119    0.7684 S.3       12 UNK        -0.2672 
      8 C8         32.9540   23.3449    1.0893 C.3       12 UNK         0.0333 
      9 C9         32.4241   24.7702    1.0295 C.ar      12 UNK        -0.0807 
     10 C10        32.5519   25.6251    2.1292 C.ar      12 UNK        -0.0894 
     11 C11        32.0542   26.9312    2.0716 C.ar      12 UNK        -0.0804 
     12 C12        31.4244   27.3772    0.9063 C.ar      12 UNK        -0.0824 
     13 C13        31.3013   26.5361   -0.2024 C.ar      12 UNK        -0.0762 
     14 C14        31.8152   25.2390   -0.1387 C.ar      12 UNK        -0.0782 
     15 C15        30.5862   27.0111   -1.4572 C.3       12 UNK         0.0230 
     16 S16        28.9601   26.2136   -1.5804 S.3       12 UNK        -0.2608 
     17 C17        28.1098   27.2211   -2.8442 C.3       12 UNK        -0.0989 
     18 CA         27.0762   28.2254   -2.2645 C.3       5 UNK         0.0716 
     19 N          26.2554   27.6346   -1.2015 N.am      5 UNK        -0.4135 
     20 C          25.1047   28.1263   -0.7293 C.2       4 UNK         0.5031 
     21 O          24.5649   29.1396   -1.1776 O.2       4 UNK        -0.5229 
     22 CA         24.4436   27.3434    0.4267 C.3       4 UNK         0.0329 
     23 CB         23.1468   28.0087    0.9258 C.3       4 UNK        -0.2001 
     24 N          24.1547   25.9455    0.0824 N.am      4 UNK        -0.4303 
     25 C          25.0605   24.9617    0.0184 C.2       3 UNK         0.5044 
     26 O          26.2652   25.1383    0.2014 O.2       3 UNK        -0.5152 
     27 CA         24.5426   23.5637   -0.3383 C.3       3 UNK         0.0319 
     28 CB         24.3075   23.4335   -1.8537 C.3       3 UNK        -0.2001 
     29 N          25.5239   22.5697    0.0908 N.am      3 UNK        -0.4354 
     30 C          25.2605   21.3247    0.4996 C.2       2 UNK         0.4964 
     31 O          24.1237   20.8508    0.5269 O.2       2 UNK        -0.5047 
     32 CA         26.4383   20.4446    0.9723 C.3       2 UNK         0.0288 
     33 CB         27.0291   19.6359   -0.2003 C.3       2 UNK        -0.2113 
     34 N          27.4901   21.1412    1.7343 N.am      2 UNK        -0.4145 
     35 C          28.3547   22.0739    1.3074 C.2       1 UNK         0.5006 
     36 O          28.3911   22.4914    0.1473 O.2       1 UNK        -0.5103 
     37 C          27.7348   29.5575   -1.8471 C.2       5 UNK         0.5055 
     38 O          27.8223   30.4674   -2.6735 O.2       5 UNK        -0.5220 
     39 N          28.1683   29.6590   -0.5854 N.am      6 UNK        -0.4450 
     40 CA         28.7528   30.8429    0.0412 C.3       6 UNK         0.0367 
     41 CB         30.1655   31.1266   -0.5121 C.3       6 UNK        -0.1929 
     42 C          28.7872   30.6084    1.5559 C.2       6 UNK         0.5070 
     43 O          28.5979   29.4744    1.9988 O.2       6 UNK        -0.5237 
     44 N          29.0389   31.6741    2.3206 N.am      7 UNK        -0.4739 
     45 CA         29.1422   31.6488    3.7790 C.3       7 UNK         0.0276 
     46 CB         27.7867   32.0342    4.4025 C.3       7 UNK        -0.1927 
     47 C          30.2906   32.5740    4.2022 C.2       7 UNK         0.5013 
     48 O          30.0556   33.6196    4.8104 O.2       7 UNK        -0.5193 
     49 N          31.5132   32.1919    3.8218 N.am      8 UNK        -0.4253 
     50 CA         32.7546   32.9128    4.0888 C.3       8 UNK         0.0242 
     51 CB         32.9929   33.9469    2.9708 C.3       8 UNK        -0.2000 
     52 C          33.9092   31.9061    4.1833 C.2       8 UNK         0.4948 
     53 O          33.6995   30.7102    3.9560 O.2       8 UNK        -0.5275 
     54 N          35.1090   32.4106    4.5078 N.am      9 UNK        -0.4246 
     55 CA         36.3719   31.6713    4.6263 C.3       9 UNK         0.0261 
     56 CB         36.8630   31.2130    3.2328 C.3       9 UNK        -0.1959 
     57 C          36.2599   30.5379    5.6624 C.2       9 UNK         0.5033 
     58 O          36.0931   30.8305    6.8479 O.2       9 UNK        -0.5390 
     59 N          36.3019   29.2785    5.2052 N.am      10 UNK        -0.4215 
     60 CA         36.1302   28.0689    6.0173 C.3       10 UNK         0.0240 
     61 CB         36.3328   26.8324    5.1259 C.3       10 UNK        -0.1982 
     62 C          34.7755   27.9834    6.7470 C.2       10 UNK         0.4970 
     63 O          34.7011   27.3323    7.7898 O.2       10 UNK        -0.4916 
     64 N          33.7464   28.6441    6.2025 N.am      11 UNK        -0.4279 
     65 CA         32.4176   28.7748    6.8147 C.3       11 UNK         0.1003 
     66 C          32.3082   29.9689    7.8090 C.2       11 UNK         0.5709 
     67 N          33.3405   30.7812    8.0120 N.am      11 UNK        -0.7358 
     68 O          31.2619   30.1571    8.4247 O.2       11 UNK        -0.4999 
     69 C69        31.3040   28.8322    5.7380 C.3       12 UNK        -0.0954 
     70 S70        31.2363   27.3380    4.6938 S.3       12 UNK        -0.2268 
     71 C71        32.2118   27.8736    3.2547 C.3       12 UNK         0.0203 
     72 H72        27.3319   26.7452    2.2628 H         1 UNK         0.0888 
     73 H73        28.8511   26.9690    3.1247 H         1 UNK         0.0888 
     74 H74        28.8515   26.5341    1.4108 H         1 UNK         0.0888 
     75 H75        29.9951   24.5116    1.6047 H         1 UNK         0.3017 
     76 H76        28.8995   22.4248    3.3479 H         1 UNK         0.0873 
     77 H77        31.3414   22.5376    3.1276 H         1 UNK         0.0745 
     78 H78        30.6809   21.0100    2.6486 H         1 UNK         0.0745 
     79 H79        33.4278   23.1357    2.0496 H         1 UNK         0.0705 
     80 H80        33.7326   23.2322    0.3337 H         1 UNK         0.0705 
     81 H81        33.0333   25.2779    3.0334 H         1 UNK         0.1334 
     82 H82        31.0176   28.3770    0.8700 H         1 UNK         0.1417 
     83 H83        31.7122   24.5813   -0.9917 H         1 UNK         0.1562 
     84 H84        31.1796   26.7704   -2.3404 H         1 UNK         0.0748 
     85 H85        30.4673   28.0948   -1.4455 H         1 UNK         0.0748 
     86 H86        27.5868   26.5218   -3.4984 H         1 UNK         0.0940 
     87 H87        28.8400   27.7185   -3.4863 H         1 UNK         0.0940 
     88 H88        26.3927   28.4774   -3.0786 H         1 UNK         0.0703 
     89 H89        26.6064   26.7719   -0.7911 H         1 UNK         0.3081 
     90 H90        25.1525   27.3527    1.2572 H         1 UNK         0.0719 
     91 H91        23.3298   29.0381    1.2373 H         1 UNK         0.0809 
     92 H92        22.7361   27.4818    1.7873 H         1 UNK         0.0809 
     93 H93        22.3805   28.0338    0.1499 H         1 UNK         0.0809 
     94 H94        23.1906   25.7277   -0.1258 H         1 UNK         0.2990 
     95 H95        23.6032   23.4037    0.1953 H         1 UNK         0.0690 
     96 H96        23.9268   22.4451   -2.1121 H         1 UNK         0.0788 
     97 H97        25.2281   23.5949   -2.4164 H         1 UNK         0.0788 
     98 H98        23.5767   24.1629   -2.2048 H         1 UNK         0.0788 
     99 H99        26.4890   22.8952    0.1028 H         1 UNK         0.2993 
    100 H100       26.0103   19.7249    1.6725 H         1 UNK         0.0949 
    101 H101       27.4559   20.2811   -0.9687 H         1 UNK         0.0767 
    102 H102       27.8106   18.9565    0.1400 H         1 UNK         0.0767 
    103 H103       26.2591   19.0303   -0.6803 H         1 UNK         0.0767 
    104 H104       27.5179   20.9013    2.7161 H         1 UNK         0.3013 
    105 H105       28.0436   28.8844    0.0566 H         1 UNK         0.3121 
    106 H106       28.1023   31.6973   -0.1568 H         1 UNK         0.0774 
    107 H107       30.6074   32.0027   -0.0363 H         1 UNK         0.0815 
    108 H108       30.8450   30.2922   -0.3459 H         1 UNK         0.0815 
    109 H109       30.1447   31.3277   -1.5829 H         1 UNK         0.0815 
    110 H110       29.2131   32.5689    1.8822 H         1 UNK         0.2987 
    111 H111       29.3982   30.6436    4.1218 H         1 UNK         0.0949 
    112 H112       27.4630   33.0264    4.0858 H         1 UNK         0.0806 
    113 H113       27.0084   31.3235    4.1240 H         1 UNK         0.0806 
    114 H114       27.8456   32.0396    5.4917 H         1 UNK         0.0806 
    115 H115       31.6451   31.2989    3.3642 H         1 UNK         0.3010 
    116 H116       32.6796   33.4215    5.0525 H         1 UNK         0.0829 
    117 H117       32.1638   34.6512    2.8995 H         1 UNK         0.0813 
    118 H118       33.8935   34.5342    3.1525 H         1 UNK         0.0813 
    119 H119       33.1060   33.4664    1.9980 H         1 UNK         0.0813 
    120 H120       35.1678   33.3977    4.7162 H         1 UNK         0.3038 
    121 H121       37.1098   32.3712    5.0215 H         1 UNK         0.0769 
    122 H122       36.1557   30.5467    2.7376 H         1 UNK         0.0811 
    123 H123       37.8210   30.6955    3.3010 H         1 UNK         0.0811 
    124 H124       37.0139   32.0696    2.5757 H         1 UNK         0.0811 
    125 H125       36.4105   29.1442    4.2104 H         1 UNK         0.3204 
    126 H126       36.9098   28.0747    6.7818 H         1 UNK         0.0748 
    127 H127       37.3234   26.8275    4.6706 H         1 UNK         0.0771 
    128 H128       36.2416   25.9132    5.7065 H         1 UNK         0.0771 
    129 H129       35.5931   26.7857    4.3253 H         1 UNK         0.0771 
    130 H130       33.8953   29.1901    5.3610 H         1 UNK         0.2980 
    131 H131       32.2295   27.8835    7.4160 H         1 UNK         0.0545 
    132 H132       34.2291   30.6405    7.5437 H         1 UNK         0.3459 
    133 H133       33.2406   31.5380    8.6690 H         1 UNK         0.3459 
    134 H134       30.3238   28.9315    6.2076 H         1 UNK         0.0616 
    135 H135       31.4268   29.7141    5.1115 H         1 UNK         0.0616 
    136 H136       31.9068   28.8821    2.9724 H         1 UNK         0.0634 
    137 H137       33.2654   27.9321    3.5288 H         1 UNK         0.0634 
@<TRIPOS>BOND
     1    1    2 1    
     2    1   72 1    
     3    1   73 1    
     4    1   74 1    
     5    2    3 2    
     6    2    4 am   BACKBONE|DICT|INTERRES
     7    4    5 1    
     8    4   75 1    
     9    5    6 1    
    10    5   35 1    
    11    5   76 1    
    12    6    7 1    
    13    6   77 1    
    14    6   78 1    
    15    7    8 1    
    16    8    9 1    
    17    8   79 1    
    18    8   80 1    
    19    9   10 ar   
    20    9   14 ar   
    21   10   11 ar   
    22   10   81 1    
    23   11   12 ar   
    24   11   71 1    
    25   12   13 ar   
    26   12   82 1    
    27   13   14 ar   
    28   13   15 1    
    29   14   83 1    
    30   15   16 1    
    31   15   84 1    
    32   15   85 1    
    33   16   17 1    
    34   17   18 1    
    35   17   86 1    
    36   17   87 1    
    37   18   19 1    
    38   18   37 1    
    39   18   88 1    
    40   19   20 am   BACKBONE|DICT|INTERRES
    41   19   89 1    
    42   20   21 2    
    43   20   22 1    
    44   22   23 1    
    45   22   24 1    
    46   22   90 1    
    47   23   91 1    
    48   23   92 1    
    49   23   93 1    
    50   24   25 am   BACKBONE|DICT|INTERRES
    51   24   94 1    
    52   25   26 2    
    53   25   27 1    
    54   27   28 1    
    55   27   29 1    
    56   27   95 1    
    57   28   96 1    
    58   28   97 1    
    59   28   98 1    
    60   29   30 am   BACKBONE|DICT|INTERRES
    61   29   99 1    
    62   30   31 2    
    63   30   32 1    
    64   32   33 1    
    65   32   34 1    
    66   32  100 1    
    67   33  101 1    
    68   33  102 1    
    69   33  103 1    
    70   34   35 am   BACKBONE|DICT|INTERRES
    71   34  104 1    
    72   35   36 2    
    73   37   38 2    
    74   37   39 am   BACKBONE|DICT|INTERRES
    75   39   40 1    
    76   39  105 1    
    77   40   41 1    
    78   40   42 1    
    79   40  106 1    
    80   41  107 1    
    81   41  108 1    
    82   41  109 1    
    83   42   43 2    
    84   42   44 am   BACKBONE|DICT|INTERRES
    85   44   45 1    
    86   44  110 1    
    87   45   46 1    
    88   45   47 1    
    89   45  111 1    
    90   46  112 1    
    91   46  113 1    
    92   46  114 1    
    93   47   48 2    
    94   47   49 am   BACKBONE|DICT|INTERRES
    95   49   50 1    
    96   49  115 1    
    97   50   51 1    
    98   50   52 1    
    99   50  116 1    
   100   51  117 1    
   101   51  118 1    
   102   51  119 1    
   103   52   53 2    
   104   52   54 am   BACKBONE|DICT|INTERRES
   105   54   55 1    
   106   54  120 1    
   107   55   56 1    
   108   55   57 1    
   109   55  121 1    
   110   56  122 1    
   111   56  123 1    
   112   56  124 1    
   113   57   58 2    
   114   57   59 am   BACKBONE|DICT|INTERRES
   115   59   60 1    
   116   59  125 1    
   117   60   61 1    
   118   60   62 1    
   119   60  126 1    
   120   61  127 1    
   121   61  128 1    
   122   61  129 1    
   123   62   63 2    
   124   62   64 am   BACKBONE|DICT|INTERRES
   125   64   65 1    
   126   64  130 1    
   127   65   66 1    
   128   65   69 1    
   129   65  131 1    
   130   66   67 am   BACKBONE|DICT|INTERRES
   131   66   68 2    
   132   67  132 1    
   133   67  133 1    
   134   69   70 1    
   135   69  134 1    
   136   69  135 1    
   137   70   71 1    
   138   71  136 1    
   139   71  137 1    
@<TRIPOS>SUBSTRUCTURE
     1 UNK         1 GROUP             0       ****    0 ROOT    
