@<TRIPOS>MOLECULE
3R136
137   139    1
SMALL
USER_CHARGES


@<TRIPOS>ATOM
      1 CA         28.5043   19.7338   -0.1963 C.3       0 UNK        -0.1979 
      2 C          28.5163   20.6487   -1.4123 C.2       0 UNK         0.4864 
      3 O          28.0475   20.2540   -2.4814 O.2       0 UNK        -0.5359 
      4 N          29.0558   21.8636   -1.2579 N.am      1 UNK        -0.4318 
      5 CA         29.0761   22.9116   -2.2815 C.3       1 UNK         0.0824 
      6 C6         30.1812   23.9665   -2.0071 C.3       12 UNK        -0.0944 
      7 S7         30.1484   24.6856   -0.3247 S.3       12 UNK        -0.2672 
      8 C8         31.5930   23.8523    0.4011 C.3       12 UNK         0.0333 
      9 C9         31.7789   24.2144    1.8651 C.ar      12 UNK        -0.0807 
     10 C10        32.6770   25.2185    2.2325 C.ar      12 UNK        -0.0894 
     11 C11        32.8959   25.5333    3.5770 C.ar      12 UNK        -0.0804 
     12 C12        32.1877   24.8266    4.5620 C.ar      12 UNK        -0.0824 
     13 C13        31.2870   23.8151    4.2077 C.ar      12 UNK        -0.0762 
     14 C14        31.0883   23.5151    2.8567 C.ar      12 UNK        -0.0782 
     15 C15        30.5718   23.0025    5.2815 C.3       12 UNK         0.0230 
     16 S16        28.7577   23.0492    5.1080 S.3       12 UNK        -0.2608 
     17 C17        28.3498   24.6795    5.8170 C.3       12 UNK        -0.0989 
     18 CA         28.3630   25.8235    4.7739 C.3       5 UNK         0.0716 
     19 N          27.5168   25.5325    3.6115 N.am      5 UNK        -0.4135 
     20 C          27.4170   26.3011    2.5194 C.2       4 UNK         0.5031 
     21 O          28.0234   27.3659    2.3834 O.2       4 UNK        -0.5229 
     22 CA         26.4845   25.7669    1.4157 C.3       4 UNK         0.0329 
     23 CB         24.9997   25.9305    1.8012 C.3       4 UNK        -0.2001 
     24 N          26.7663   26.3312    0.0895 N.am      4 UNK        -0.4303 
     25 C          26.5569   27.5791   -0.3614 C.2       3 UNK         0.5044 
     26 O          25.9691   28.4634    0.2598 O.2       3 UNK        -0.5152 
     27 CA         27.0789   27.8998   -1.7747 C.3       3 UNK         0.0319 
     28 CB         28.4997   28.4825   -1.6984 C.3       3 UNK        -0.2001 
     29 N          27.0803   26.7400   -2.6690 N.am      3 UNK        -0.4354 
     30 C          25.9788   26.1366   -3.1408 C.2       2 UNK         0.4964 
     31 O          24.8352   26.5524   -2.9524 O.2       2 UNK        -0.5047 
     32 CA         26.1821   24.8406   -3.9490 C.3       2 UNK         0.0288 
     33 CB         26.1536   25.1372   -5.4575 C.3       2 UNK        -0.2113 
     34 N          27.4193   24.1211   -3.6212 N.am      2 UNK        -0.4145 
     35 C          27.6894   23.5686   -2.4292 C.2       1 UNK         0.5006 
     36 O          26.9190   23.6106   -1.4659 O.2       1 UNK        -0.5103 
     37 C          27.9774   27.1580    5.4434 C.2       5 UNK         0.5055 
     38 O          26.8010   27.5278    5.4458 O.2       5 UNK        -0.5220 
     39 N          28.9845   27.8581    5.9822 N.am      6 UNK        -0.4450 
     40 CA         28.9408   29.1889    6.6102 C.3       6 UNK         0.0367 
     41 CB         27.9512   29.2439    7.7911 C.3       6 UNK        -0.1929 
     42 C          28.7096   30.3554    5.6290 C.2       6 UNK         0.5070 
     43 O          29.2221   31.4470    5.8711 O.2       6 UNK        -0.5237 
     44 N          27.9728   30.1209    4.5376 N.am      7 UNK        -0.4739 
     45 CA         27.7863   31.0717    3.4401 C.3       7 UNK         0.0276 
     46 CB         26.4447   30.7814    2.7540 C.3       7 UNK        -0.1927 
     47 C          28.9448   31.0321    2.4270 C.2       7 UNK         0.5013 
     48 O          29.2006   32.0414    1.7677 O.2       7 UNK        -0.5193 
     49 N          29.6228   29.8809    2.3158 N.am      8 UNK        -0.4253 
     50 CA         30.7672   29.6267    1.4396 C.3       8 UNK         0.0242 
     51 CB         31.0209   28.1103    1.3794 C.3       8 UNK        -0.2000 
     52 C          32.0364   30.4033    1.8423 C.2       8 UNK         0.4948 
     53 O          32.9775   29.8108    2.3754 O.2       8 UNK        -0.5275 
     54 N          32.0403   31.7098    1.5425 N.am      9 UNK        -0.4246 
     55 CA         33.1710   32.6456    1.5565 C.3       9 UNK         0.0261 
     56 CB         34.0292   32.4378    0.2884 C.3       9 UNK        -0.1959 
     57 C          33.9904   32.6062    2.8599 C.2       9 UNK         0.5033 
     58 O          33.5726   33.2051    3.8516 O.2       9 UNK        -0.5390 
     59 N          35.1279   31.8963    2.8365 N.am      10 UNK        -0.4215 
     60 CA         36.0673   31.7239    3.9475 C.3       10 UNK         0.0240 
     61 CB         37.2724   30.9007    3.4637 C.3       10 UNK        -0.1982 
     62 C          35.4599   31.0901    5.2118 C.2       10 UNK         0.4970 
     63 O          35.9564   31.3678    6.3047 O.2       10 UNK        -0.4916 
     64 N          34.4049   30.2777    5.0574 N.am      11 UNK        -0.4279 
     65 CA         33.6204   29.7469    6.1837 C.3       11 UNK         0.1003 
     66 C          32.6371   30.7759    6.8136 C.2       11 UNK         0.5709 
     67 N          32.4243   31.9535    6.2388 N.am      11 UNK        -0.7358 
     68 O          32.0730   30.5058    7.8707 O.2       11 UNK        -0.4999 
     69 C69        32.9165   28.4100    5.8263 C.3       12 UNK        -0.0954 
     70 S70        34.1324   27.0633    5.6451 S.3       12 UNK        -0.2268 
     71 C71        33.9493   26.6000    3.8908 C.3       12 UNK         0.0203 
     72 H72        28.9609   20.2056    0.6738 H         1 UNK         0.0888 
     73 H73        27.4797   19.4672    0.0617 H         1 UNK         0.0888 
     74 H74        29.0520   18.8166   -0.4110 H         1 UNK         0.0888 
     75 H75        29.3743   22.1569   -0.3464 H         1 UNK         0.3017 
     76 H76        29.3087   22.4342   -3.2364 H         1 UNK         0.0873 
     77 H77        31.1567   23.5087   -2.1787 H         1 UNK         0.0745 
     78 H78        30.1272   24.7840   -2.7284 H         1 UNK         0.0745 
     79 H79        31.4819   22.7716    0.3017 H         1 UNK         0.0705 
     80 H80        32.4844   24.1211   -0.1681 H         1 UNK         0.0705 
     81 H81        33.2238   25.7495    1.4649 H         1 UNK         0.1334 
     82 H82        32.3511   25.0344    5.6094 H         1 UNK         0.1417 
     83 H83        30.4018   22.7269    2.5790 H         1 UNK         0.1562 
     84 H84        30.8529   23.3317    6.2829 H         1 UNK         0.0748 
     85 H85        30.8991   21.9650    5.2018 H         1 UNK         0.0748 
     86 H86        29.0411   24.8928    6.6347 H         1 UNK         0.0940 
     87 H87        27.3622   24.5988    6.2764 H         1 UNK         0.0940 
     88 H88        29.3802   25.9278    4.3910 H         1 UNK         0.0703 
     89 H89        26.9845   24.6771    3.6618 H         1 UNK         0.3081 
     90 H90        26.6884   24.6994    1.3156 H         1 UNK         0.0719 
     91 H91        24.7473   26.9689    2.0178 H         1 UNK         0.0809 
     92 H92        24.3423   25.5832    1.0041 H         1 UNK         0.0809 
     93 H93        24.7601   25.3515    2.6936 H         1 UNK         0.0809 
     94 H94        27.2336   25.6896   -0.5375 H         1 UNK         0.2990 
     95 H95        26.4215   28.6585   -2.2050 H         1 UNK         0.0690 
     96 H96        28.8470   28.8146   -2.6769 H         1 UNK         0.0788 
     97 H97        29.2150   27.7534   -1.3160 H         1 UNK         0.0788 
     98 H98        28.5289   29.3472   -1.0336 H         1 UNK         0.0788 
     99 H99        27.9791   26.3422   -2.8967 H         1 UNK         0.2993 
    100 H100       25.3437   24.1814   -3.7129 H         1 UNK         0.0949 
    101 H101       26.2030   24.2194   -6.0441 H         1 UNK         0.0767 
    102 H102       25.2309   25.6480   -5.7375 H         1 UNK         0.0767 
    103 H103       26.9842   25.7762   -5.7600 H         1 UNK         0.0767 
    104 H104       28.1032   24.0457   -4.3610 H         1 UNK         0.3013 
    105 H105       29.9110   27.4616    5.9113 H         1 UNK         0.3121 
    106 H106       29.9361   29.3351    7.0264 H         1 UNK         0.0774 
    107 H107       28.0509   30.1859    8.3318 H         1 UNK         0.0815 
    108 H108       26.9141   29.1721    7.4630 H         1 UNK         0.0815 
    109 H109       28.1367   28.4404    8.5037 H         1 UNK         0.0815 
    110 H110       27.5383   29.2093    4.4419 H         1 UNK         0.2987 
    111 H111       27.7454   32.0858    3.8442 H         1 UNK         0.0949 
    112 H112       26.3820   29.7424    2.4323 H         1 UNK         0.0806 
    113 H113       25.6079   30.9716    3.4261 H         1 UNK         0.0806 
    114 H114       26.3046   31.4089    1.8726 H         1 UNK         0.0806 
    115 H115       29.2613   29.0769    2.8145 H         1 UNK         0.3010 
    116 H116       30.4986   29.9518    0.4326 H         1 UNK         0.0829 
    117 H117       30.1802   27.5820    0.9318 H         1 UNK         0.0813 
    118 H118       31.8986   27.8794    0.7747 H         1 UNK         0.0813 
    119 H119       31.1852   27.6924    2.3729 H         1 UNK         0.0813 
    120 H120       31.1493   32.1022    1.2528 H         1 UNK         0.3038 
    121 H121       32.7421   33.6473    1.5005 H         1 UNK         0.0769 
    122 H122       33.4497   32.6491   -0.6104 H         1 UNK         0.0811 
    123 H123       34.4014   31.4164    0.2012 H         1 UNK         0.0811 
    124 H124       34.8884   33.1103    0.2761 H         1 UNK         0.0811 
    125 H125       35.3475   31.4027    1.9837 H         1 UNK         0.3204 
    126 H126       36.4215   32.7185    4.2260 H         1 UNK         0.0748 
    127 H127       37.7793   31.3881    2.6305 H         1 UNK         0.0771 
    128 H128       38.0079   30.7790    4.2604 H         1 UNK         0.0771 
    129 H129       36.9744   29.9023    3.1404 H         1 UNK         0.0771 
    130 H130       34.0348   30.1096    4.1271 H         1 UNK         0.2980 
    131 H131       34.3204   29.5218    6.9910 H         1 UNK         0.0545 
    132 H132       32.8957   32.2268    5.3825 H         1 UNK         0.3459 
    133 H133       31.7610   32.5825    6.6616 H         1 UNK         0.3459 
    134 H134       32.3148   28.5144    4.9216 H         1 UNK         0.0616 
    135 H135       32.2304   28.1053    6.6182 H         1 UNK         0.0616 
    136 H136       34.9155   26.2231    3.5531 H         1 UNK         0.0634 
    137 H137       33.7535   27.4952    3.3010 H         1 UNK         0.0634 
@<TRIPOS>BOND
     1    1    2 1    
     2    1   72 1    
     3    1   73 1    
     4    1   74 1    
     5    2    3 2    
     6    2    4 am   BACKBONE|DICT|INTERRES
     7    4    5 1    
     8    4   75 1    
     9    5    6 1    
    10    5   35 1    
    11    5   76 1    
    12    6    7 1    
    13    6   77 1    
    14    6   78 1    
    15    7    8 1    
    16    8    9 1    
    17    8   79 1    
    18    8   80 1    
    19    9   10 ar   
    20    9   14 ar   
    21   10   11 ar   
    22   10   81 1    
    23   11   12 ar   
    24   11   71 1    
    25   12   13 ar   
    26   12   82 1    
    27   13   14 ar   
    28   13   15 1    
    29   14   83 1    
    30   15   16 1    
    31   15   84 1    
    32   15   85 1    
    33   16   17 1    
    34   17   18 1    
    35   17   86 1    
    36   17   87 1    
    37   18   19 1    
    38   18   37 1    
    39   18   88 1    
    40   19   20 am   BACKBONE|DICT|INTERRES
    41   19   89 1    
    42   20   21 2    
    43   20   22 1    
    44   22   23 1    
    45   22   24 1    
    46   22   90 1    
    47   23   91 1    
    48   23   92 1    
    49   23   93 1    
    50   24   25 am   BACKBONE|DICT|INTERRES
    51   24   94 1    
    52   25   26 2    
    53   25   27 1    
    54   27   28 1    
    55   27   29 1    
    56   27   95 1    
    57   28   96 1    
    58   28   97 1    
    59   28   98 1    
    60   29   30 am   BACKBONE|DICT|INTERRES
    61   29   99 1    
    62   30   31 2    
    63   30   32 1    
    64   32   33 1    
    65   32   34 1    
    66   32  100 1    
    67   33  101 1    
    68   33  102 1    
    69   33  103 1    
    70   34   35 am   BACKBONE|DICT|INTERRES
    71   34  104 1    
    72   35   36 2    
    73   37   38 2    
    74   37   39 am   BACKBONE|DICT|INTERRES
    75   39   40 1    
    76   39  105 1    
    77   40   41 1    
    78   40   42 1    
    79   40  106 1    
    80   41  107 1    
    81   41  108 1    
    82   41  109 1    
    83   42   43 2    
    84   42   44 am   BACKBONE|DICT|INTERRES
    85   44   45 1    
    86   44  110 1    
    87   45   46 1    
    88   45   47 1    
    89   45  111 1    
    90   46  112 1    
    91   46  113 1    
    92   46  114 1    
    93   47   48 2    
    94   47   49 am   BACKBONE|DICT|INTERRES
    95   49   50 1    
    96   49  115 1    
    97   50   51 1    
    98   50   52 1    
    99   50  116 1    
   100   51  117 1    
   101   51  118 1    
   102   51  119 1    
   103   52   53 2    
   104   52   54 am   BACKBONE|DICT|INTERRES
   105   54   55 1    
   106   54  120 1    
   107   55   56 1    
   108   55   57 1    
   109   55  121 1    
   110   56  122 1    
   111   56  123 1    
   112   56  124 1    
   113   57   58 2    
   114   57   59 am   BACKBONE|DICT|INTERRES
   115   59   60 1    
   116   59  125 1    
   117   60   61 1    
   118   60   62 1    
   119   60  126 1    
   120   61  127 1    
   121   61  128 1    
   122   61  129 1    
   123   62   63 2    
   124   62   64 am   BACKBONE|DICT|INTERRES
   125   64   65 1    
   126   64  130 1    
   127   65   66 1    
   128   65   69 1    
   129   65  131 1    
   130   66   67 am   BACKBONE|DICT|INTERRES
   131   66   68 2    
   132   67  132 1    
   133   67  133 1    
   134   69   70 1    
   135   69  134 1    
   136   69  135 1    
   137   70   71 1    
   138   71  136 1    
   139   71  137 1    
@<TRIPOS>SUBSTRUCTURE
     1 UNK         1 GROUP             0       ****    0 ROOT    
