@<TRIPOS>MOLECULE
3R136
137   139    1
SMALL
USER_CHARGES


@<TRIPOS>ATOM
      1 CA         30.2054   21.6945   -4.2908 C.3       0 UNK        -0.1979 
      2 C          29.0528   22.6330   -3.9655 C.2       0 UNK         0.4864 
      3 O          28.0028   22.5564   -4.6044 O.2       0 UNK        -0.5359 
      4 N          29.2399   23.5160   -2.9741 N.am      1 UNK        -0.4318 
      5 CA         28.2469   24.5041   -2.5275 C.3       1 UNK         0.0824 
      6 C6         28.9317   25.7032   -1.8123 C.3       12 UNK        -0.0944 
      7 S7         29.2424   25.5297   -0.0210 S.3       12 UNK        -0.2672 
      8 C8         30.7348   24.4905    0.0438 C.3       12 UNK         0.0333 
      9 C9         31.2248   24.4041    1.4792 C.ar      12 UNK        -0.0807 
     10 C10        32.3056   25.1831    1.9033 C.ar      12 UNK        -0.0894 
     11 C11        32.6750   25.2075    3.2513 C.ar      12 UNK        -0.0804 
     12 C12        31.9391   24.4649    4.1797 C.ar      12 UNK        -0.0824 
     13 C13        30.8385   23.7060    3.7700 C.ar      12 UNK        -0.0762 
     14 C14        30.5260   23.6260    2.4088 C.ar      12 UNK        -0.0782 
     15 C15        29.9212   23.0681    4.8059 C.3       12 UNK         0.0230 
     16 S16        28.2557   23.8347    4.8252 S.3       12 UNK        -0.2608 
     17 C17        28.6055   25.6251    4.9947 C.3       12 UNK        -0.0989 
     18 CA         28.6755   26.3314    3.6138 C.3       5 UNK         0.0716 
     19 N          27.4198   26.2779    2.8591 N.am      5 UNK        -0.4135 
     20 C          26.3663   27.1031    2.9326 C.2       4 UNK         0.5031 
     21 O          26.2834   28.0778    3.6802 O.2       4 UNK        -0.5229 
     22 CA         25.1836   26.7685    2.0052 C.3       4 UNK         0.0329 
     23 CB         25.4257   27.3409    0.5988 C.3       4 UNK        -0.2001 
     24 N          24.9166   25.3300    1.9069 N.am      4 UNK        -0.4303 
     25 C          24.5396   24.5531    2.9343 C.2       3 UNK         0.5044 
     26 O          24.3129   24.9885    4.0642 O.2       3 UNK        -0.5152 
     27 CA         24.3622   23.0424    2.6800 C.3       3 UNK         0.0319 
     28 CB         22.8945   22.6277    2.8841 C.3       3 UNK        -0.2001 
     29 N          24.8019   22.5656    1.3647 N.am      3 UNK        -0.4354 
     30 C          26.0672   22.5203    0.9278 C.2       2 UNK         0.4964 
     31 O          27.0247   22.9608    1.5645 O.2       2 UNK        -0.5047 
     32 CA         26.3151   21.8563   -0.4410 C.3       2 UNK         0.0288 
     33 CB         25.0315   21.5162   -1.2358 C.3       2 UNK        -0.2113 
     34 N          27.2442   22.6374   -1.2613 N.am      2 UNK        -0.4145 
     35 C          27.0746   23.8870   -1.7236 C.2       1 UNK         0.5006 
     36 O          26.0550   24.5554   -1.5377 O.2       1 UNK        -0.5103 
     37 C          29.3228   27.7279    3.6464 C.2       5 UNK         0.5055 
     38 O          29.4302   28.3479    4.7080 O.2       5 UNK        -0.5220 
     39 N          29.7479   28.1908    2.4663 N.am      6 UNK        -0.4450 
     40 CA         30.4661   29.4420    2.2763 C.3       6 UNK         0.0367 
     41 CB         29.4649   30.5782    2.0030 C.3       6 UNK        -0.1929 
     42 C          31.4556   29.2891    1.1188 C.2       6 UNK         0.5070 
     43 O          31.2182   28.4984    0.2033 O.2       6 UNK        -0.5237 
     44 N          32.5261   30.0813    1.1769 N.am      7 UNK        -0.4739 
     45 CA         33.5334   30.2440    0.1344 C.3       7 UNK         0.0276 
     46 CB         34.8561   29.6079    0.6102 C.3       7 UNK        -0.1927 
     47 C          33.6126   31.7484   -0.1683 C.2       7 UNK         0.5013 
     48 O          32.6208   32.3148   -0.6311 O.2       7 UNK        -0.5193 
     49 N          34.7510   32.3888    0.1369 N.am      8 UNK        -0.4253 
     50 CA         34.9118   33.8501    0.1144 C.3       8 UNK         0.0242 
     51 CB         36.4082   34.1957    0.1865 C.3       8 UNK        -0.2000 
     52 C          34.1388   34.5569    1.2483 C.2       8 UNK         0.4948 
     53 O          33.8209   35.7402    1.1244 O.2       8 UNK        -0.5275 
     54 N          33.8447   33.8125    2.3181 N.am      9 UNK        -0.4246 
     55 CA         32.9902   34.1656    3.4442 C.3       9 UNK         0.0261 
     56 CB         33.8421   34.8022    4.5574 C.3       9 UNK        -0.1959 
     57 C          32.3113   32.8700    3.9148 C.2       9 UNK         0.5033 
     58 O          32.6492   31.7927    3.4117 O.2       9 UNK        -0.5390 
     59 N          31.3718   32.9842    4.8624 N.am      10 UNK        -0.4215 
     60 CA         30.6897   31.8481    5.4917 C.3       10 UNK         0.0240 
     61 CB         29.5735   32.3665    6.4125 C.3       10 UNK        -0.1982 
     62 C          31.6715   30.9581    6.2740 C.2       10 UNK         0.4970 
     63 O          32.5038   31.4854    7.0162 O.2       10 UNK        -0.4916 
     64 N          31.5481   29.6383    6.1018 N.am      11 UNK        -0.4279 
     65 CA         32.4120   28.6340    6.7416 C.3       11 UNK         0.1003 
     66 C          31.9764   28.2578    8.1874 C.2       11 UNK         0.5709 
     67 N          30.8183   28.6918    8.6717 N.am      11 UNK        -0.7358 
     68 O          32.7116   27.5676    8.8895 O.2       11 UNK        -0.4999 
     69 C69        32.5649   27.3698    5.8569 C.3       12 UNK        -0.0954 
     70 S70        33.3037   27.7269    4.2267 S.3       12 UNK        -0.2268 
     71 C71        33.8449   26.0678    3.7073 C.3       12 UNK         0.0203 
     72 H72        31.0675   21.8668   -3.6467 H         1 UNK         0.0888 
     73 H73        29.8918   20.6582   -4.1675 H         1 UNK         0.0888 
     74 H74        30.5217   21.8340   -5.3242 H         1 UNK         0.0888 
     75 H75        30.1311   23.5442   -2.5014 H         1 UNK         0.3017 
     76 H76        27.7902   24.9087   -3.4338 H         1 UNK         0.0873 
     77 H77        28.2906   26.5798   -1.9205 H         1 UNK         0.0745 
     78 H78        29.8631   25.9744   -2.3123 H         1 UNK         0.0745 
     79 H79        31.5050   24.9111   -0.6048 H         1 UNK         0.0705 
     80 H80        30.5078   23.4910   -0.3283 H         1 UNK         0.0705 
     81 H81        32.8373   25.7995    1.1908 H         1 UNK         0.1334 
     82 H82        32.1943   24.5191    5.2289 H         1 UNK         0.1417 
     83 H83        29.6583   23.0621    2.0918 H         1 UNK         0.1562 
     84 H84        30.3538   23.1398    5.8050 H         1 UNK         0.0748 
     85 H85        29.8193   22.0038    4.5900 H         1 UNK         0.0748 
     86 H86        29.5385   25.7439    5.5468 H         1 UNK         0.0940 
     87 H87        27.8289   26.0815    5.6106 H         1 UNK         0.0940 
     88 H88        29.3636   25.7679    3.0006 H         1 UNK         0.0703 
     89 H89        27.3529   25.5002    2.2158 H         1 UNK         0.3081 
     90 H90        24.2919   27.2439    2.4194 H         1 UNK         0.0719 
     91 H91        25.6048   28.4162    0.6406 H         1 UNK         0.0809 
     92 H92        26.2930   26.8846    0.1195 H         1 UNK         0.0809 
     93 H93        24.5640   27.1808   -0.0495 H         1 UNK         0.0809 
     94 H94        25.0793   24.8928    1.0100 H         1 UNK         0.2990 
     95 H95        24.9667   22.5298    3.4315 H         1 UNK         0.0690 
     96 H96        22.7707   21.5477    2.8022 H         1 UNK         0.0788 
     97 H97        22.2375   23.0994    2.1522 H         1 UNK         0.0788 
     98 H98        22.5381   22.9156    3.8743 H         1 UNK         0.0788 
     99 H99        24.0819   22.1996    0.7584 H         1 UNK         0.2993 
    100 H100       26.8228   20.9156   -0.2226 H         1 UNK         0.0949 
    101 H101       25.2784   21.0601   -2.1949 H         1 UNK         0.0767 
    102 H102       24.4083   20.7997   -0.6993 H         1 UNK         0.0767 
    103 H103       24.4261   22.4000   -1.4413 H         1 UNK         0.0767 
    104 H104       28.1345   22.1988   -1.4442 H         1 UNK         0.3013 
    105 H105       29.6882   27.6089    1.6374 H         1 UNK         0.3121 
    106 H106       31.0414   29.6646    3.1762 H         1 UNK         0.0774 
    107 H107       29.9801   31.5335    1.8946 H         1 UNK         0.0815 
    108 H108       28.9017   30.4028    1.0857 H         1 UNK         0.0815 
    109 H109       28.7489   30.6841    2.8181 H         1 UNK         0.0815 
    110 H110       32.6042   30.7147    1.9738 H         1 UNK         0.2987 
    111 H111       33.2184   29.7501   -0.7875 H         1 UNK         0.0949 
    112 H112       35.2061   30.0365    1.5503 H         1 UNK         0.0806 
    113 H113       34.7304   28.5369    0.7722 H         1 UNK         0.0806 
    114 H114       35.6449   29.7255   -0.1340 H         1 UNK         0.0806 
    115 H115       35.5260   31.8500    0.4964 H         1 UNK         0.3010 
    116 H116       34.5180   34.2243   -0.8332 H         1 UNK         0.0829 
    117 H117       36.9578   33.7585   -0.6474 H         1 UNK         0.0813 
    118 H118       36.5609   35.2750    0.1423 H         1 UNK         0.0813 
    119 H119       36.8618   33.8408    1.1128 H         1 UNK         0.0813 
    120 H120       34.0883   32.8301    2.3056 H         1 UNK         0.3038 
    121 H121       32.2166   34.8630    3.1158 H         1 UNK         0.0769 
    122 H122       33.2264   35.1079    5.4038 H         1 UNK         0.0811 
    123 H123       34.3598   35.6921    4.1988 H         1 UNK         0.0811 
    124 H124       34.5944   34.1077    4.9340 H         1 UNK         0.0811 
    125 H125       31.1705   33.8981    5.2413 H         1 UNK         0.3204 
    126 H126       30.2276   31.2547    4.7026 H         1 UNK         0.0748 
    127 H127       29.0275   31.5383    6.8664 H         1 UNK         0.0771 
    128 H128       29.9699   32.9797    7.2230 H         1 UNK         0.0771 
    129 H129       28.8486   32.9649    5.8602 H         1 UNK         0.0771 
    130 H130       30.8005   29.2649    5.5196 H         1 UNK         0.2980 
    131 H131       33.4087   29.0674    6.8452 H         1 UNK         0.0545 
    132 H132       30.5523   28.4454    9.6119 H         1 UNK         0.3459 
    133 H133       30.2059   29.2523    8.1020 H         1 UNK         0.3459 
    134 H134       33.1950   26.6323    6.3572 H         1 UNK         0.0616 
    135 H135       31.5953   26.8970    5.7037 H         1 UNK         0.0616 
    136 H136       34.5624   26.1776    2.8928 H         1 UNK         0.0634 
    137 H137       34.3832   25.5800    4.5212 H         1 UNK         0.0634 
@<TRIPOS>BOND
     1    1    2 1    
     2    1   72 1    
     3    1   73 1    
     4    1   74 1    
     5    2    3 2    
     6    2    4 am   BACKBONE|DICT|INTERRES
     7    4    5 1    
     8    4   75 1    
     9    5    6 1    
    10    5   35 1    
    11    5   76 1    
    12    6    7 1    
    13    6   77 1    
    14    6   78 1    
    15    7    8 1    
    16    8    9 1    
    17    8   79 1    
    18    8   80 1    
    19    9   10 ar   
    20    9   14 ar   
    21   10   11 ar   
    22   10   81 1    
    23   11   12 ar   
    24   11   71 1    
    25   12   13 ar   
    26   12   82 1    
    27   13   14 ar   
    28   13   15 1    
    29   14   83 1    
    30   15   16 1    
    31   15   84 1    
    32   15   85 1    
    33   16   17 1    
    34   17   18 1    
    35   17   86 1    
    36   17   87 1    
    37   18   19 1    
    38   18   37 1    
    39   18   88 1    
    40   19   20 am   BACKBONE|DICT|INTERRES
    41   19   89 1    
    42   20   21 2    
    43   20   22 1    
    44   22   23 1    
    45   22   24 1    
    46   22   90 1    
    47   23   91 1    
    48   23   92 1    
    49   23   93 1    
    50   24   25 am   BACKBONE|DICT|INTERRES
    51   24   94 1    
    52   25   26 2    
    53   25   27 1    
    54   27   28 1    
    55   27   29 1    
    56   27   95 1    
    57   28   96 1    
    58   28   97 1    
    59   28   98 1    
    60   29   30 am   BACKBONE|DICT|INTERRES
    61   29   99 1    
    62   30   31 2    
    63   30   32 1    
    64   32   33 1    
    65   32   34 1    
    66   32  100 1    
    67   33  101 1    
    68   33  102 1    
    69   33  103 1    
    70   34   35 am   BACKBONE|DICT|INTERRES
    71   34  104 1    
    72   35   36 2    
    73   37   38 2    
    74   37   39 am   BACKBONE|DICT|INTERRES
    75   39   40 1    
    76   39  105 1    
    77   40   41 1    
    78   40   42 1    
    79   40  106 1    
    80   41  107 1    
    81   41  108 1    
    82   41  109 1    
    83   42   43 2    
    84   42   44 am   BACKBONE|DICT|INTERRES
    85   44   45 1    
    86   44  110 1    
    87   45   46 1    
    88   45   47 1    
    89   45  111 1    
    90   46  112 1    
    91   46  113 1    
    92   46  114 1    
    93   47   48 2    
    94   47   49 am   BACKBONE|DICT|INTERRES
    95   49   50 1    
    96   49  115 1    
    97   50   51 1    
    98   50   52 1    
    99   50  116 1    
   100   51  117 1    
   101   51  118 1    
   102   51  119 1    
   103   52   53 2    
   104   52   54 am   BACKBONE|DICT|INTERRES
   105   54   55 1    
   106   54  120 1    
   107   55   56 1    
   108   55   57 1    
   109   55  121 1    
   110   56  122 1    
   111   56  123 1    
   112   56  124 1    
   113   57   58 2    
   114   57   59 am   BACKBONE|DICT|INTERRES
   115   59   60 1    
   116   59  125 1    
   117   60   61 1    
   118   60   62 1    
   119   60  126 1    
   120   61  127 1    
   121   61  128 1    
   122   61  129 1    
   123   62   63 2    
   124   62   64 am   BACKBONE|DICT|INTERRES
   125   64   65 1    
   126   64  130 1    
   127   65   66 1    
   128   65   69 1    
   129   65  131 1    
   130   66   67 am   BACKBONE|DICT|INTERRES
   131   66   68 2    
   132   67  132 1    
   133   67  133 1    
   134   69   70 1    
   135   69  134 1    
   136   69  135 1    
   137   70   71 1    
   138   71  136 1    
   139   71  137 1    
@<TRIPOS>SUBSTRUCTURE
     1 UNK         1 GROUP             0       ****    0 ROOT    
