@<TRIPOS>MOLECULE
3R136
137   139    1
SMALL
USER_CHARGES


@<TRIPOS>ATOM
      1 CA         30.0416   23.9220   -5.1376 C.3       0 UNK        -0.1979 
      2 C          30.1276   24.5285   -3.7448 C.2       0 UNK         0.4864 
      3 O          29.7248   25.6759   -3.5537 O.2       0 UNK        -0.5359 
      4 N          30.6578   23.7689   -2.7757 N.am      1 UNK        -0.4318 
      5 CA         30.7758   24.1738   -1.3682 C.3       1 UNK         0.0824 
      6 C6         31.8309   23.3144   -0.6179 C.3       12 UNK        -0.0944 
      7 S7         32.9453   24.3228    0.4135 S.3       12 UNK        -0.2672 
      8 C8         32.9549   23.4150    1.9899 C.3       12 UNK         0.0333 
      9 C9         31.9698   23.9911    2.9969 C.ar      12 UNK        -0.0807 
     10 C10        32.3862   24.9894    3.8833 C.ar      12 UNK        -0.0894 
     11 C11        31.5233   25.4666    4.8748 C.ar      12 UNK        -0.0804 
     12 C12        30.2294   24.9511    4.9622 C.ar      12 UNK        -0.0824 
     13 C13        29.7806   23.9975    4.0447 C.ar      12 UNK        -0.0762 
     14 C14        30.6586   23.5104    3.0703 C.ar      12 UNK        -0.0782 
     15 C15        28.3439   23.5030    4.1042 C.3       12 UNK         0.0230 
     16 S16        27.2473   24.5113    3.0559 S.3       12 UNK        -0.2608 
     17 C17        27.1600   26.0885    3.9736 C.3       12 UNK        -0.0989 
     18 CA         28.0157   27.2281    3.3523 C.3       5 UNK         0.0716 
     19 N          27.6600   27.4345    1.9449 N.am      5 UNK        -0.4135 
     20 C          27.9293   28.4683    1.1340 C.2       4 UNK         0.5031 
     21 O          28.5868   29.4574    1.4614 O.2       4 UNK        -0.5229 
     22 CA         27.3956   28.3892   -0.3099 C.3       4 UNK         0.0329 
     23 CB         28.5613   28.2727   -1.3059 C.3       4 UNK        -0.2001 
     24 N          26.4735   27.2719   -0.5295 N.am      4 UNK        -0.4303 
     25 C          25.2116   27.1952   -0.0867 C.2       3 UNK         0.5044 
     26 O          24.6299   28.1304    0.4628 O.2       3 UNK        -0.5152 
     27 CA         24.4894   25.8374   -0.2129 C.3       3 UNK         0.0319 
     28 CB         23.6012   25.7887   -1.4720 C.3       3 UNK        -0.2001 
     29 N          25.3757   24.6630   -0.1148 N.am      3 UNK        -0.4354 
     30 C          26.3067   24.2489   -0.9859 C.2       2 UNK         0.4964 
     31 O          26.5137   24.7829   -2.0772 O.2       2 UNK        -0.5047 
     32 CA         27.1716   23.0541   -0.5519 C.3       2 UNK         0.0288 
     33 CB         26.5824   21.7393   -1.0870 C.3       2 UNK        -0.2113 
     34 N          28.5511   23.1902   -1.0241 N.am      2 UNK        -0.4145 
     35 C          29.4081   24.1557   -0.6523 C.2       1 UNK         0.5006 
     36 O          29.1513   25.0112    0.1946 O.2       1 UNK        -0.5103 
     37 C          27.8631   28.5078    4.1998 C.2       5 UNK         0.5055 
     38 O          26.7325   28.9450    4.4229 O.2       5 UNK        -0.5220 
     39 N          28.9895   29.1018    4.6212 N.am      6 UNK        -0.4450 
     40 CA         29.1382   30.3292    5.4193 C.3       6 UNK         0.0367 
     41 CB         28.4216   30.2151    6.7793 C.3       6 UNK        -0.1929 
     42 C          28.7566   31.6337    4.6913 C.2       6 UNK         0.5070 
     43 O          29.3064   32.6828    5.0277 O.2       6 UNK        -0.5237 
     44 N          27.8467   31.5642    3.7120 N.am      7 UNK        -0.4739 
     45 CA         27.4240   32.6781    2.8613 C.3       7 UNK         0.0276 
     46 CB         26.1659   32.2667    2.0793 C.3       7 UNK        -0.1927 
     47 C          28.5294   33.1439    1.8991 C.2       7 UNK         0.5013 
     48 O          28.6578   34.3465    1.6646 O.2       7 UNK        -0.5193 
     49 N          29.3036   32.1886    1.3715 N.am      8 UNK        -0.4253 
     50 CA         30.4391   32.4240    0.4798 C.3       8 UNK         0.0242 
     51 CB         29.9771   32.3808   -0.9870 C.3       8 UNK        -0.2000 
     52 C          31.5854   31.4352    0.7348 C.2       8 UNK         0.4948 
     53 O          32.7463   31.8383    0.6491 O.2       8 UNK        -0.5275 
     54 N          31.2646   30.1729    1.0523 N.am      9 UNK        -0.4246 
     55 CA         32.2371   29.1523    1.4360 C.3       9 UNK         0.0261 
     56 CB         31.6557   27.7557    1.1612 C.3       9 UNK        -0.1959 
     57 C          32.5785   29.3197    2.9211 C.2       9 UNK         0.5033 
     58 O          31.7029   29.1028    3.7610 O.2       9 UNK        -0.5390 
     59 N          33.8223   29.7154    3.2137 N.am      10 UNK        -0.4215 
     60 CA         34.3465   29.8764    4.5704 C.3       10 UNK         0.0240 
     61 CB         35.3503   31.0409    4.5860 C.3       10 UNK        -0.1982 
     62 C          35.0227   28.5792    5.0378 C.2       10 UNK         0.4970 
     63 O          35.6413   27.8867    4.2259 O.2       10 UNK        -0.4916 
     64 N          34.9011   28.2862    6.3363 N.am      11 UNK        -0.4279 
     65 CA         35.4276   27.0733    6.9838 C.3       11 UNK         0.1003 
     66 C          35.7988   27.2755    8.4819 C.2       11 UNK         0.5709 
     67 N          35.8712   28.5021    8.9883 N.am      11 UNK        -0.7358 
     68 O          36.0532   26.3093    9.1974 O.2       11 UNK        -0.4999 
     69 C69        34.5467   25.8179    6.7100 C.3       12 UNK        -0.0954 
     70 S70        32.8214   25.9570    7.3007 S.3       12 UNK        -0.2268 
     71 C71        31.9579   26.5742    5.8217 C.3       12 UNK         0.0203 
     72 H72        30.6000   24.5318   -5.8473 H         1 UNK         0.0888 
     73 H73        30.4451   22.9101   -5.1691 H         1 UNK         0.0888 
     74 H74        29.0028   23.8833   -5.4646 H         1 UNK         0.0888 
     75 H75        30.9947   22.8437   -3.0021 H         1 UNK         0.3017 
     76 H76        31.1083   25.2147   -1.3715 H         1 UNK         0.0873 
     77 H77        31.3670   22.5239   -0.0246 H         1 UNK         0.0745 
     78 H78        32.4769   22.7931   -1.3264 H         1 UNK         0.0745 
     79 H79        33.9635   23.4633    2.4033 H         1 UNK         0.0705 
     80 H80        32.7580   22.3550    1.8239 H         1 UNK         0.0705 
     81 H81        33.3855   25.3912    3.7972 H         1 UNK         0.1334 
     82 H82        29.5612   25.3195    5.7277 H         1 UNK         0.1417 
     83 H83        30.3198   22.7607    2.3687 H         1 UNK         0.1562 
     84 H84        27.9774   23.5034    5.1319 H         1 UNK         0.0748 
     85 H85        28.2959   22.4668    3.7660 H         1 UNK         0.0748 
     86 H86        27.4346   25.9184    5.0155 H         1 UNK         0.0940 
     87 H87        26.1077   26.3801    3.9974 H         1 UNK         0.0940 
     88 H88        29.0635   26.9257    3.3667 H         1 UNK         0.0703 
     89 H89        27.1758   26.6539    1.5282 H         1 UNK         0.3081 
     90 H90        26.8638   29.3218   -0.5088 H         1 UNK         0.0719 
     91 H91        29.1110   27.3402   -1.1757 H         1 UNK         0.0809 
     92 H92        28.2085   28.3079   -2.3367 H         1 UNK         0.0809 
     93 H93        29.2755   29.0862   -1.1798 H         1 UNK         0.0809 
     94 H94        26.8443   26.4641   -1.0196 H         1 UNK         0.2990 
     95 H95        23.8261   25.7665    0.6508 H         1 UNK         0.0690 
     96 H96        23.0604   24.8449   -1.5402 H         1 UNK         0.0788 
     97 H97        24.1787   25.9128   -2.3884 H         1 UNK         0.0788 
     98 H98        22.8585   26.5873   -1.4514 H         1 UNK         0.0788 
     99 H99        25.3052   24.1594    0.7597 H         1 UNK         0.2993 
    100 H100       27.1977   23.0088    0.5379 H         1 UNK         0.0949 
    101 H101       26.5487   21.7267   -2.1774 H         1 UNK         0.0767 
    102 H102       27.1659   20.8791   -0.7579 H         1 UNK         0.0767 
    103 H103       25.5625   21.5935   -0.7280 H         1 UNK         0.0767 
    104 H104       28.8363   22.5619   -1.7597 H         1 UNK         0.3013 
    105 H105       29.8816   28.7493    4.2778 H         1 UNK         0.3121 
    106 H106       30.2071   30.4054    5.6253 H         1 UNK         0.0774 
    107 H107       28.6511   31.0748    7.4101 H         1 UNK         0.0815 
    108 H108       27.3376   30.1785    6.6696 H         1 UNK         0.0815 
    109 H109       28.7367   29.3230    7.3203 H         1 UNK         0.0815 
    110 H110       27.4212   30.6604    3.5384 H         1 UNK         0.2987 
    111 H111       27.1694   33.5208    3.5077 H         1 UNK         0.0949 
    112 H112       25.8152   33.0833    1.4466 H         1 UNK         0.0806 
    113 H113       26.3541   31.4091    1.4319 H         1 UNK         0.0806 
    114 H114       25.3491   32.0045    2.7520 H         1 UNK         0.0806 
    115 H115       29.0891   31.2217    1.6052 H         1 UNK         0.3010 
    116 H116       30.8450   33.4185    0.6788 H         1 UNK         0.0829 
    117 H117       29.2622   33.1761   -1.1981 H         1 UNK         0.0813 
    118 H118       30.8193   32.5133   -1.6676 H         1 UNK         0.0813 
    119 H119       29.5012   31.4320   -1.2326 H         1 UNK         0.0813 
    120 H120       30.2867   29.9084    1.1466 H         1 UNK         0.3038 
    121 H121       33.1426   29.2642    0.8356 H         1 UNK         0.0769 
    122 H122       32.3633   26.9829    1.4599 H         1 UNK         0.0811 
    123 H123       31.4404   27.6105    0.1028 H         1 UNK         0.0811 
    124 H124       30.7366   27.5748    1.7177 H         1 UNK         0.0811 
    125 H125       34.4843   29.8405    2.4612 H         1 UNK         0.3204 
    126 H126       33.5271   30.1185    5.2513 H         1 UNK         0.0748 
    127 H127       35.7418   31.2077    5.5904 H         1 UNK         0.0771 
    128 H128       36.2022   30.8509    3.9314 H         1 UNK         0.0771 
    129 H129       34.8814   31.9710    4.2637 H         1 UNK         0.0771 
    130 H130       34.3657   28.8961    6.9370 H         1 UNK         0.2980 
    131 H131       36.3968   26.8721    6.5236 H         1 UNK         0.0545 
    132 H132       36.1201   28.6105    9.9592 H         1 UNK         0.3459 
    133 H133       35.7444   29.3183    8.4133 H         1 UNK         0.3459 
    134 H134       34.9893   24.9354    7.1746 H         1 UNK         0.0616 
    135 H135       34.5489   25.6005    5.6443 H         1 UNK         0.0616 
    136 H136       32.5953   27.2725    5.2889 H         1 UNK         0.0634 
    137 H137       31.0893   27.1515    6.1424 H         1 UNK         0.0634 
@<TRIPOS>BOND
     1    1    2 1    
     2    1   72 1    
     3    1   73 1    
     4    1   74 1    
     5    2    3 2    
     6    2    4 am   BACKBONE|DICT|INTERRES
     7    4    5 1    
     8    4   75 1    
     9    5    6 1    
    10    5   35 1    
    11    5   76 1    
    12    6    7 1    
    13    6   77 1    
    14    6   78 1    
    15    7    8 1    
    16    8    9 1    
    17    8   79 1    
    18    8   80 1    
    19    9   10 ar   
    20    9   14 ar   
    21   10   11 ar   
    22   10   81 1    
    23   11   12 ar   
    24   11   71 1    
    25   12   13 ar   
    26   12   82 1    
    27   13   14 ar   
    28   13   15 1    
    29   14   83 1    
    30   15   16 1    
    31   15   84 1    
    32   15   85 1    
    33   16   17 1    
    34   17   18 1    
    35   17   86 1    
    36   17   87 1    
    37   18   19 1    
    38   18   37 1    
    39   18   88 1    
    40   19   20 am   BACKBONE|DICT|INTERRES
    41   19   89 1    
    42   20   21 2    
    43   20   22 1    
    44   22   23 1    
    45   22   24 1    
    46   22   90 1    
    47   23   91 1    
    48   23   92 1    
    49   23   93 1    
    50   24   25 am   BACKBONE|DICT|INTERRES
    51   24   94 1    
    52   25   26 2    
    53   25   27 1    
    54   27   28 1    
    55   27   29 1    
    56   27   95 1    
    57   28   96 1    
    58   28   97 1    
    59   28   98 1    
    60   29   30 am   BACKBONE|DICT|INTERRES
    61   29   99 1    
    62   30   31 2    
    63   30   32 1    
    64   32   33 1    
    65   32   34 1    
    66   32  100 1    
    67   33  101 1    
    68   33  102 1    
    69   33  103 1    
    70   34   35 am   BACKBONE|DICT|INTERRES
    71   34  104 1    
    72   35   36 2    
    73   37   38 2    
    74   37   39 am   BACKBONE|DICT|INTERRES
    75   39   40 1    
    76   39  105 1    
    77   40   41 1    
    78   40   42 1    
    79   40  106 1    
    80   41  107 1    
    81   41  108 1    
    82   41  109 1    
    83   42   43 2    
    84   42   44 am   BACKBONE|DICT|INTERRES
    85   44   45 1    
    86   44  110 1    
    87   45   46 1    
    88   45   47 1    
    89   45  111 1    
    90   46  112 1    
    91   46  113 1    
    92   46  114 1    
    93   47   48 2    
    94   47   49 am   BACKBONE|DICT|INTERRES
    95   49   50 1    
    96   49  115 1    
    97   50   51 1    
    98   50   52 1    
    99   50  116 1    
   100   51  117 1    
   101   51  118 1    
   102   51  119 1    
   103   52   53 2    
   104   52   54 am   BACKBONE|DICT|INTERRES
   105   54   55 1    
   106   54  120 1    
   107   55   56 1    
   108   55   57 1    
   109   55  121 1    
   110   56  122 1    
   111   56  123 1    
   112   56  124 1    
   113   57   58 2    
   114   57   59 am   BACKBONE|DICT|INTERRES
   115   59   60 1    
   116   59  125 1    
   117   60   61 1    
   118   60   62 1    
   119   60  126 1    
   120   61  127 1    
   121   61  128 1    
   122   61  129 1    
   123   62   63 2    
   124   62   64 am   BACKBONE|DICT|INTERRES
   125   64   65 1    
   126   64  130 1    
   127   65   66 1    
   128   65   69 1    
   129   65  131 1    
   130   66   67 am   BACKBONE|DICT|INTERRES
   131   66   68 2    
   132   67  132 1    
   133   67  133 1    
   134   69   70 1    
   135   69  134 1    
   136   69  135 1    
   137   70   71 1    
   138   71  136 1    
   139   71  137 1    
@<TRIPOS>SUBSTRUCTURE
     1 UNK         1 GROUP             0       ****    0 ROOT    
