@<TRIPOS>MOLECULE
3R136
137   139    1
SMALL
USER_CHARGES


@<TRIPOS>ATOM
      1 CA         28.4444   26.6510   -3.2982 C.3       0 UNK        -0.1979 
      2 C          28.4841   25.2066   -2.8198 C.2       0 UNK         0.4864 
      3 O          28.2650   24.2976   -3.6221 O.2       0 UNK        -0.5359 
      4 N          28.7614   25.0117   -1.5230 N.am      1 UNK        -0.4318 
      5 CA         28.7823   23.7455   -0.7754 C.3       1 UNK         0.0824 
      6 C6         29.6771   22.6345   -1.4021 C.3       12 UNK        -0.0944 
      7 S7         31.3822   23.1875   -1.7620 S.3       12 UNK        -0.2672 
      8 C8         32.3368   22.4363   -0.4069 C.3       12 UNK         0.0333 
      9 C9         32.0959   23.1518    0.9134 C.ar      12 UNK        -0.0807 
     10 C10        32.7855   24.3330    1.2076 C.ar      12 UNK        -0.0894 
     11 C11        32.5778   24.9990    2.4201 C.ar      12 UNK        -0.0804 
     12 C12        31.6656   24.4654    3.3362 C.ar      12 UNK        -0.0824 
     13 C13        30.9599   23.2940    3.0500 C.ar      12 UNK        -0.0762 
     14 C14        31.1877   22.6337    1.8407 C.ar      12 UNK        -0.0782 
     15 C15        29.9472   22.7470    4.0451 C.3       12 UNK         0.0230 
     16 S16        28.2823   23.4238    3.7461 S.3       12 UNK        -0.2608 
     17 C17        28.4730   25.1516    4.2989 C.3       12 UNK        -0.0989 
     18 CA         28.6155   26.1191    3.0953 C.3       5 UNK         0.0716 
     19 N          27.3313   26.3313    2.4173 N.am      5 UNK        -0.4135 
     20 C          27.1866   26.7691    1.1610 C.2       4 UNK         0.5031 
     21 O          28.1377   26.9708    0.4020 O.2       4 UNK        -0.5229 
     22 CA         25.7484   27.0023    0.6773 C.3       4 UNK         0.0329 
     23 CB         25.6903   27.5599   -0.7572 C.3       4 UNK        -0.2001 
     24 N          25.0001   25.7477    0.7207 N.am      4 UNK        -0.4303 
     25 C          23.9353   25.5027    1.4963 C.2       3 UNK         0.5044 
     26 O          23.4897   26.3047    2.3177 O.2       3 UNK        -0.5152 
     27 CA         23.2348   24.1409    1.3281 C.3       3 UNK         0.0319 
     28 CB         22.0220   24.2758    0.3932 C.3       3 UNK        -0.2001 
     29 N          24.1266   23.1039    0.8063 N.am      3 UNK        -0.4354 
     30 C          25.0528   22.4664    1.5331 C.2       2 UNK         0.4964 
     31 O          25.1757   22.6047    2.7492 O.2       2 UNK        -0.5047 
     32 CA         26.0065   21.5195    0.7796 C.3       2 UNK         0.0288 
     33 CB         25.3315   20.7834   -0.4000 C.3       2 UNK        -0.2113 
     34 N          27.2403   22.1895    0.3428 N.am      2 UNK        -0.4145 
     35 C          27.3483   23.2478   -0.4770 C.2       1 UNK         0.5006 
     36 O          26.3722   23.8301   -0.9605 O.2       1 UNK        -0.5103 
     37 C          29.2568   27.4684    3.4895 C.2       5 UNK         0.5055 
     38 O          29.3203   27.8100    4.6730 O.2       5 UNK        -0.5220 
     39 N          29.7143   28.2158    2.4822 N.am      6 UNK        -0.4450 
     40 CA         30.3709   29.5099    2.6010 C.3       6 UNK         0.0367 
     41 CB         29.3079   30.6230    2.6479 C.3       6 UNK        -0.1929 
     42 C          31.3176   29.6954    1.4096 C.2       6 UNK         0.5070 
     43 O          31.1234   29.0696    0.3650 O.2       6 UNK        -0.5237 
     44 N          32.3136   30.5649    1.5882 N.am      7 UNK        -0.4739 
     45 CA         33.3245   30.9196    0.5933 C.3       7 UNK         0.0276 
     46 CB         34.5640   30.0230    0.7822 C.3       7 UNK        -0.1927 
     47 C          33.6314   32.4178    0.7297 C.2       7 UNK         0.5013 
     48 O          34.7129   32.7861    1.1896 O.2       7 UNK        -0.5193 
     49 N          32.6288   33.2493    0.3987 N.am      8 UNK        -0.4253 
     50 CA         32.5722   34.7156    0.5719 C.3       8 UNK         0.0242 
     51 CB         33.6919   35.4238   -0.2204 C.3       8 UNK        -0.2000 
     52 C          32.5179   35.1762    2.0473 C.2       8 UNK         0.4948 
     53 O          32.6257   36.3715    2.3251 O.2       8 UNK        -0.5275 
     54 N          32.3198   34.2162    2.9518 N.am      9 UNK        -0.4246 
     55 CA         32.2263   34.2751    4.4037 C.3       9 UNK         0.0261 
     56 CB         33.5555   34.7500    5.0226 C.3       9 UNK        -0.1959 
     57 C          31.9039   32.8386    4.8414 C.2       9 UNK         0.5033 
     58 O          32.0829   31.9129    4.0407 O.2       9 UNK        -0.5390 
     59 N          31.4356   32.6611    6.0828 N.am      10 UNK        -0.4215 
     60 CA         31.1198   31.3487    6.6591 C.3       10 UNK         0.0240 
     61 CB         30.5062   31.5373    8.0559 C.3       10 UNK        -0.1982 
     62 C          32.3593   30.4379    6.7290 C.2       10 UNK         0.4970 
     63 O          33.4370   30.9101    7.0991 O.2       10 UNK        -0.4916 
     64 N          32.1798   29.1601    6.3730 N.am      11 UNK        -0.4279 
     65 CA         33.2611   28.1631    6.2910 C.3       11 UNK         0.1003 
     66 C          33.8676   27.7269    7.6590 C.2       11 UNK         0.5709 
     67 N          33.2135   27.9839    8.7859 N.am      11 UNK        -0.7358 
     68 O          34.9534   27.1536    7.6995 O.2       11 UNK        -0.4999 
     69 C69        32.8250   26.9383    5.4394 C.3       12 UNK        -0.0954 
     70 S70        34.1462   26.3294    4.3340 S.3       12 UNK        -0.2268 
     71 C71        33.3153   26.3062    2.7077 C.3       12 UNK         0.0203 
     72 H72        29.2088   26.8162   -4.0569 H         1 UNK         0.0888 
     73 H73        27.4725   26.8749   -3.7370 H         1 UNK         0.0888 
     74 H74        28.6177   27.3541   -2.4828 H         1 UNK         0.0888 
     75 H75        28.8221   25.8331   -0.9257 H         1 UNK         0.3017 
     76 H76        29.2098   24.0054    0.1941 H         1 UNK         0.0873 
     77 H77        29.2412   22.2712   -2.3338 H         1 UNK         0.0745 
     78 H78        29.7272   21.7621   -0.7497 H         1 UNK         0.0745 
     79 H79        33.3975   22.4865   -0.6574 H         1 UNK         0.0705 
     80 H80        32.0960   21.3751   -0.3271 H         1 UNK         0.0705 
     81 H81        33.4801   24.7362    0.4830 H         1 UNK         0.1334 
     82 H82        31.4903   24.9657    4.2743 H         1 UNK         0.1417 
     83 H83        30.6529   21.7204    1.6197 H         1 UNK         0.1562 
     84 H84        30.2579   22.9627    5.0687 H         1 UNK         0.0748 
     85 H85        29.9020   21.6596    3.9678 H         1 UNK         0.0748 
     86 H86        29.3310   25.2096    4.9697 H         1 UNK         0.0940 
     87 H87        27.6121   25.4236    4.9122 H         1 UNK         0.0940 
     88 H88        29.3001   25.6600    2.3788 H         1 UNK         0.0703 
     89 H89        26.5021   26.1813    2.9736 H         1 UNK         0.3081 
     90 H90        25.3062   27.7462    1.3431 H         1 UNK         0.0719 
     91 H91        24.6656   27.7904   -1.0487 H         1 UNK         0.0809 
     92 H92        26.2678   28.4810   -0.8470 H         1 UNK         0.0809 
     93 H93        26.0891   26.8479   -1.4802 H         1 UNK         0.0809 
     94 H94        25.3365   25.0125    0.1022 H         1 UNK         0.2990 
     95 H95        22.8734   23.8307    2.3110 H         1 UNK         0.0690 
     96 H96        21.3215   25.0233    0.7685 H         1 UNK         0.0788 
     97 H97        21.4770   23.3351    0.3121 H         1 UNK         0.0788 
     98 H98        22.3177   24.5814   -0.6114 H         1 UNK         0.0788 
     99 H99        24.1244   22.9558   -0.1935 H         1 UNK         0.2993 
    100 H100       26.3092   20.7605    1.5032 H         1 UNK         0.0949 
    101 H101       25.0797   21.4511   -1.2243 H         1 UNK         0.0767 
    102 H102       25.9853   20.0072   -0.7981 H         1 UNK         0.0767 
    103 H103       24.4108   20.2931   -0.0803 H         1 UNK         0.0767 
    104 H104       28.0865   21.8134    0.7451 H         1 UNK         0.3013 
    105 H105       29.6147   27.8769    1.5276 H         1 UNK         0.3121 
    106 H106       30.9660   29.5286    3.5165 H         1 UNK         0.0774 
    107 H107       28.6655   30.6004    1.7668 H         1 UNK         0.0815 
    108 H108       29.7680   31.6104    2.6901 H         1 UNK         0.0815 
    109 H109       28.6732   30.5262    3.5287 H         1 UNK         0.0815 
    110 H110       32.3757   31.0417    2.4890 H         1 UNK         0.2987 
    111 H111       32.9347   30.7600   -0.4148 H         1 UNK         0.0949 
    112 H112       34.9827   30.1197    1.7848 H         1 UNK         0.0806 
    113 H113       34.3196   28.9727    0.6228 H         1 UNK         0.0806 
    114 H114       35.3484   30.2856    0.0714 H         1 UNK         0.0806 
    115 H115       31.7777   32.8287    0.0496 H         1 UNK         0.3010 
    116 H116       31.6219   35.0267    0.1354 H         1 UNK         0.0829 
    117 H117       33.7103   35.0984   -1.2604 H         1 UNK         0.0813 
    118 H118       33.5440   36.5044   -0.2234 H         1 UNK         0.0813 
    119 H119       34.6764   35.2363    0.2089 H         1 UNK         0.0813 
    120 H120       32.2424   33.2628    2.6196 H         1 UNK         0.3038 
    121 H121       31.4077   34.9390    4.6871 H         1 UNK         0.0769 
    122 H122       34.3854   34.1049    4.7308 H         1 UNK         0.0811 
    123 H123       33.5067   34.7467    6.1120 H         1 UNK         0.0811 
    124 H124       33.8002   35.7672    4.7171 H         1 UNK         0.0811 
    125 H125       31.3429   33.4612    6.6916 H         1 UNK         0.3204 
    126 H126       30.3744   30.8774    6.0141 H         1 UNK         0.0748 
    127 H127       29.6004   32.1427    8.0140 H         1 UNK         0.0771 
    128 H128       30.2313   30.5774    8.4952 H         1 UNK         0.0771 
    129 H129       31.2035   32.0217    8.7410 H         1 UNK         0.0771 
    130 H130       31.2578   28.8427    6.1067 H         1 UNK         0.2980 
    131 H131       34.0735   28.6654    5.7615 H         1 UNK         0.0545 
    132 H132       32.3248   28.4567    8.7658 H         1 UNK         0.3459 
    133 H133       33.6172   27.7027    9.6654 H         1 UNK         0.3459 
    134 H134       32.4788   26.1161    6.0686 H         1 UNK         0.0616 
    135 H135       31.9704   27.2044    4.8184 H         1 UNK         0.0616 
    136 H136       34.0808   26.4761    1.9490 H         1 UNK         0.0634 
    137 H137       32.6223   27.1435    2.6232 H         1 UNK         0.0634 
@<TRIPOS>BOND
     1    1    2 1    
     2    1   72 1    
     3    1   73 1    
     4    1   74 1    
     5    2    3 2    
     6    2    4 am   BACKBONE|DICT|INTERRES
     7    4    5 1    
     8    4   75 1    
     9    5    6 1    
    10    5   35 1    
    11    5   76 1    
    12    6    7 1    
    13    6   77 1    
    14    6   78 1    
    15    7    8 1    
    16    8    9 1    
    17    8   79 1    
    18    8   80 1    
    19    9   10 ar   
    20    9   14 ar   
    21   10   11 ar   
    22   10   81 1    
    23   11   12 ar   
    24   11   71 1    
    25   12   13 ar   
    26   12   82 1    
    27   13   14 ar   
    28   13   15 1    
    29   14   83 1    
    30   15   16 1    
    31   15   84 1    
    32   15   85 1    
    33   16   17 1    
    34   17   18 1    
    35   17   86 1    
    36   17   87 1    
    37   18   19 1    
    38   18   37 1    
    39   18   88 1    
    40   19   20 am   BACKBONE|DICT|INTERRES
    41   19   89 1    
    42   20   21 2    
    43   20   22 1    
    44   22   23 1    
    45   22   24 1    
    46   22   90 1    
    47   23   91 1    
    48   23   92 1    
    49   23   93 1    
    50   24   25 am   BACKBONE|DICT|INTERRES
    51   24   94 1    
    52   25   26 2    
    53   25   27 1    
    54   27   28 1    
    55   27   29 1    
    56   27   95 1    
    57   28   96 1    
    58   28   97 1    
    59   28   98 1    
    60   29   30 am   BACKBONE|DICT|INTERRES
    61   29   99 1    
    62   30   31 2    
    63   30   32 1    
    64   32   33 1    
    65   32   34 1    
    66   32  100 1    
    67   33  101 1    
    68   33  102 1    
    69   33  103 1    
    70   34   35 am   BACKBONE|DICT|INTERRES
    71   34  104 1    
    72   35   36 2    
    73   37   38 2    
    74   37   39 am   BACKBONE|DICT|INTERRES
    75   39   40 1    
    76   39  105 1    
    77   40   41 1    
    78   40   42 1    
    79   40  106 1    
    80   41  107 1    
    81   41  108 1    
    82   41  109 1    
    83   42   43 2    
    84   42   44 am   BACKBONE|DICT|INTERRES
    85   44   45 1    
    86   44  110 1    
    87   45   46 1    
    88   45   47 1    
    89   45  111 1    
    90   46  112 1    
    91   46  113 1    
    92   46  114 1    
    93   47   48 2    
    94   47   49 am   BACKBONE|DICT|INTERRES
    95   49   50 1    
    96   49  115 1    
    97   50   51 1    
    98   50   52 1    
    99   50  116 1    
   100   51  117 1    
   101   51  118 1    
   102   51  119 1    
   103   52   53 2    
   104   52   54 am   BACKBONE|DICT|INTERRES
   105   54   55 1    
   106   54  120 1    
   107   55   56 1    
   108   55   57 1    
   109   55  121 1    
   110   56  122 1    
   111   56  123 1    
   112   56  124 1    
   113   57   58 2    
   114   57   59 am   BACKBONE|DICT|INTERRES
   115   59   60 1    
   116   59  125 1    
   117   60   61 1    
   118   60   62 1    
   119   60  126 1    
   120   61  127 1    
   121   61  128 1    
   122   61  129 1    
   123   62   63 2    
   124   62   64 am   BACKBONE|DICT|INTERRES
   125   64   65 1    
   126   64  130 1    
   127   65   66 1    
   128   65   69 1    
   129   65  131 1    
   130   66   67 am   BACKBONE|DICT|INTERRES
   131   66   68 2    
   132   67  132 1    
   133   67  133 1    
   134   69   70 1    
   135   69  134 1    
   136   69  135 1    
   137   70   71 1    
   138   71  136 1    
   139   71  137 1    
@<TRIPOS>SUBSTRUCTURE
     1 UNK         1 GROUP             0       ****    0 ROOT    
