@<TRIPOS>MOLECULE
3R136
137   139    1
SMALL
USER_CHARGES


@<TRIPOS>ATOM
      1 CA         26.4439   19.7189    2.8823 C.3       0 UNK        -0.1979 
      2 C          27.0061   20.8493    2.0352 C.2       0 UNK         0.4864 
      3 O          26.2379   21.6292    1.4719 O.2       0 UNK        -0.5359 
      4 N          28.3399   20.9612    1.9538 N.am      1 UNK        -0.4318 
      5 CA         29.0672   21.9670    1.1644 C.3       1 UNK         0.0824 
      6 C6         30.5996   21.7588    1.2662 C.3       12 UNK        -0.0944 
      7 S7         31.4866   22.2861   -0.2358 S.3       12 UNK        -0.2672 
      8 C8         32.6699   23.5091    0.4160 C.3       12 UNK         0.0333 
      9 C9         32.1383   24.9334    0.3354 C.ar      12 UNK        -0.0807 
     10 C10        31.8412   25.6584    1.4940 C.ar      12 UNK        -0.0894 
     11 C11        31.4393   26.9969    1.4092 C.ar      12 UNK        -0.0804 
     12 C12        31.3108   27.5988    0.1528 C.ar      12 UNK        -0.0824 
     13 C13        31.5715   26.8735   -1.0130 C.ar      12 UNK        -0.0762 
     14 C14        31.9959   25.5457   -0.9127 C.ar      12 UNK        -0.0782 
     15 C15        31.3998   27.5124   -2.3866 C.3       12 UNK         0.0230 
     16 S16        29.6934   28.0644   -2.7330 S.3       12 UNK        -0.2608 
     17 C17        28.6710   26.6193   -2.2676 C.3       12 UNK        -0.0989 
     18 CA         27.3609   26.9716   -1.5129 C.3       5 UNK         0.0716 
     19 N          26.6439   25.7517   -1.1583 N.am      5 UNK        -0.4135 
     20 C          25.6649   25.1802   -1.8643 C.2       4 UNK         0.5031 
     21 O          25.2472   25.6190   -2.9371 O.2       4 UNK        -0.5229 
     22 CA         25.0433   23.8951   -1.2875 C.3       4 UNK         0.0329 
     23 CB         25.7962   22.6600   -1.8081 C.3       4 UNK        -0.2001 
     24 N          25.0165   23.8535    0.1767 N.am      4 UNK        -0.4303 
     25 C          24.2740   24.6486    0.9616 C.2       3 UNK         0.5044 
     26 O          23.5030   25.5084    0.5341 O.2       3 UNK        -0.5152 
     27 CA         24.4237   24.4598    2.4793 C.3       3 UNK         0.0319 
     28 CB         23.5996   23.2574    2.9695 C.3       3 UNK        -0.2001 
     29 N          25.8329   24.2750    2.8309 N.am      3 UNK        -0.4354 
     30 C          26.6289   25.2491    3.2961 C.2       2 UNK         0.4964 
     31 O          26.2086   26.3502    3.6552 O.2       2 UNK        -0.5047 
     32 CA         28.1427   24.9655    3.4033 C.3       2 UNK         0.0288 
     33 CB         28.6124   25.0287    4.8661 C.3       2 UNK        -0.2113 
     34 N          28.5658   23.6849    2.8325 N.am      2 UNK        -0.4145 
     35 C          28.6655   23.4127    1.5230 C.2       1 UNK         0.5006 
     36 O          28.3871   24.2084    0.6275 O.2       1 UNK        -0.5103 
     37 C          27.5727   27.7687   -0.2101 C.2       5 UNK         0.5055 
     38 O          27.5914   27.1836    0.8727 O.2       5 UNK        -0.5220 
     39 N          27.7158   29.0915   -0.3291 N.am      6 UNK        -0.4450 
     40 CA         28.0082   30.0067    0.7691 C.3       6 UNK         0.0367 
     41 CB         26.7362   30.7842    1.1448 C.3       6 UNK        -0.1929 
     42 C          29.1193   30.9551    0.3121 C.2       6 UNK         0.5070 
     43 O          29.1915   31.2831   -0.8748 O.2       6 UNK        -0.5237 
     44 N          29.9576   31.3833    1.2576 N.am      7 UNK        -0.4739 
     45 CA         31.0915   32.2743    1.0385 C.3       7 UNK         0.0276 
     46 CB         32.3017   31.4617    0.5377 C.3       7 UNK        -0.1927 
     47 C          31.4195   32.9800    2.3573 C.2       7 UNK         0.5013 
     48 O          31.0786   32.4661    3.4269 O.2       7 UNK        -0.5193 
     49 N          32.1083   34.1236    2.2640 N.am      8 UNK        -0.4253 
     50 CA         32.6510   34.8661    3.4034 C.3       8 UNK         0.0242 
     51 CB         32.8032   36.3483    3.0118 C.3       8 UNK        -0.2000 
     52 C          33.9804   34.2302    3.8471 C.2       8 UNK         0.4948 
     53 O          35.0508   34.7839    3.5871 O.2       8 UNK        -0.5275 
     54 N          33.8847   33.0471    4.4588 N.am      9 UNK        -0.4246 
     55 CA         35.0003   32.2066    4.8781 C.3       9 UNK         0.0261 
     56 CB         35.4267   31.3095    3.6989 C.3       9 UNK        -0.1959 
     57 C          34.5785   31.3761    6.0966 C.2       9 UNK         0.5033 
     58 O          33.4033   31.3854    6.4760 O.2       9 UNK        -0.5390 
     59 N          35.5446   30.6465    6.6721 N.am      10 UNK        -0.4215 
     60 CA         35.3949   29.7964    7.8618 C.3       10 UNK         0.0240 
     61 CB         36.7687   29.2155    8.2367 C.3       10 UNK        -0.1982 
     62 C          34.3500   28.6683    7.7427 C.2       10 UNK         0.4970 
     63 O          33.9138   28.1510    8.7721 O.2       10 UNK        -0.4916 
     64 N          33.9578   28.3170    6.5113 N.am      11 UNK        -0.4279 
     65 CA         32.8304   27.4247    6.2119 C.3       11 UNK         0.1003 
     66 C          31.4304   27.9898    6.6022 C.2       11 UNK         0.5709 
     67 N          31.2727   29.2906    6.8256 N.am      11 UNK        -0.7358 
     68 O          30.4755   27.2271    6.7185 O.2       11 UNK        -0.4999 
     69 C69        32.8765   26.9368    4.7396 C.3       12 UNK        -0.0954 
     70 S70        32.6885   28.2848    3.5161 S.3       12 UNK        -0.2268 
     71 C71        31.1513   27.8027    2.6682 C.3       12 UNK         0.0203 
     72 H72        25.8288   19.0627    2.2673 H         1 UNK         0.0888 
     73 H73        25.8198   20.1232    3.6786 H         1 UNK         0.0888 
     74 H74        27.2313   19.1188    3.3379 H         1 UNK         0.0888 
     75 H75        28.9147   20.2895    2.4427 H         1 UNK         0.3017 
     76 H76        28.7632   21.8016    0.1283 H         1 UNK         0.0873 
     77 H77        31.0128   22.2401    2.1547 H         1 UNK         0.0745 
     78 H78        30.8254   20.6975    1.3824 H         1 UNK         0.0745 
     79 H79        32.9618   23.2526    1.4353 H         1 UNK         0.0705 
     80 H80        33.5841   23.4476   -0.1763 H         1 UNK         0.0705 
     81 H81        31.9491   25.1902    2.4617 H         1 UNK         0.1334 
     82 H82        30.9953   28.6297    0.0761 H         1 UNK         0.1417 
     83 H83        32.2179   24.9807   -1.8079 H         1 UNK         0.1562 
     84 H84        31.7016   26.8201   -3.1741 H         1 UNK         0.0748 
     85 H85        32.0681   28.3710   -2.4641 H         1 UNK         0.0748 
     86 H86        29.2511   25.9145   -1.6713 H         1 UNK         0.0940 
     87 H87        28.4260   26.0850   -3.1868 H         1 UNK         0.0940 
     88 H88        26.7317   27.5815   -2.1648 H         1 UNK         0.0703 
     89 H89        26.9536   25.3300   -0.2858 H         1 UNK         0.3081 
     90 H90        24.0114   23.8413   -1.6406 H         1 UNK         0.0719 
     91 H91        26.8326   22.6494   -1.4677 H         1 UNK         0.0809 
     92 H92        25.3249   21.7366   -1.4709 H         1 UNK         0.0809 
     93 H93        25.8089   22.6395   -2.8987 H         1 UNK         0.0809 
     94 H94        25.5729   23.1228    0.6156 H         1 UNK         0.2990 
     95 H95        24.0252   25.3525    2.9661 H         1 UNK         0.0690 
     96 H96        23.6874   23.1327    4.0489 H         1 UNK         0.0788 
     97 H97        23.9110   22.3246    2.4991 H         1 UNK         0.0788 
     98 H98        22.5413   23.3960    2.7444 H         1 UNK         0.0788 
     99 H99        26.2494   23.3957    2.5490 H         1 UNK         0.2993 
    100 H100       28.6471   25.7594    2.8489 H         1 UNK         0.0949 
    101 H101       28.3569   25.9885    5.3176 H         1 UNK         0.0767 
    102 H102       28.1506   24.2496    5.4735 H         1 UNK         0.0767 
    103 H103       29.6947   24.9209    4.9414 H         1 UNK         0.0767 
    104 H104       28.7779   22.9484    3.4898 H         1 UNK         0.3013 
    105 H105       27.8014   29.5011   -1.2516 H         1 UNK         0.3121 
    106 H106       28.3616   29.4542    1.6425 H         1 UNK         0.0774 
    107 H107       26.3547   31.3648    0.3038 H         1 UNK         0.0815 
    108 H108       26.9299   31.4796    1.9624 H         1 UNK         0.0815 
    109 H109       25.9451   30.1097    1.4730 H         1 UNK         0.0815 
    110 H110       29.8094   31.1403    2.2302 H         1 UNK         0.2987 
    111 H111       30.8206   33.0312    0.2985 H         1 UNK         0.0949 
    112 H112       32.5863   30.6857    1.2500 H         1 UNK         0.0806 
    113 H113       32.0897   30.9779   -0.4160 H         1 UNK         0.0806 
    114 H114       33.1723   32.1010    0.3871 H         1 UNK         0.0806 
    115 H115       32.3761   34.4555    1.3482 H         1 UNK         0.3010 
    116 H116       31.9538   34.8114    4.2428 H         1 UNK         0.0829 
    117 H117       31.8411   36.7893    2.7504 H         1 UNK         0.0813 
    118 H118       33.2104   36.9294    3.8403 H         1 UNK         0.0813 
    119 H119       33.4736   36.4789    2.1614 H         1 UNK         0.0813 
    120 H120       32.9654   32.6646    4.6590 H         1 UNK         0.3038 
    121 H121       35.8382   32.8382    5.1813 H         1 UNK         0.0769 
    122 H122       34.6101   30.6661    3.3695 H         1 UNK         0.0811 
    123 H123       36.2665   30.6662    3.9629 H         1 UNK         0.0811 
    124 H124       35.7410   31.9067    2.8427 H         1 UNK         0.0811 
    125 H125       36.4754   30.6996    6.2830 H         1 UNK         0.3204 
    126 H126       35.0646   30.4428    8.6775 H         1 UNK         0.0748 
    127 H127       36.7037   28.6051    9.1387 H         1 UNK         0.0771 
    128 H128       37.1689   28.5824    7.4437 H         1 UNK         0.0771 
    129 H129       37.4939   30.0047    8.4367 H         1 UNK         0.0771 
    130 H130       34.3539   28.8014    5.7207 H         1 UNK         0.2980 
    131 H131       32.9676   26.5394    6.8357 H         1 UNK         0.0545 
    132 H132       30.3632   29.6377    7.0822 H         1 UNK         0.3459 
    133 H133       32.0465   29.9376    6.7134 H         1 UNK         0.3459 
    134 H134       33.8295   26.4425    4.5459 H         1 UNK         0.0616 
    135 H135       32.1164   26.1712    4.5802 H         1 UNK         0.0616 
    136 H136       30.5000   27.2423    3.3394 H         1 UNK         0.0634 
    137 H137       30.6063   28.7123    2.4151 H         1 UNK         0.0634 
@<TRIPOS>BOND
     1    1    2 1    
     2    1   72 1    
     3    1   73 1    
     4    1   74 1    
     5    2    3 2    
     6    2    4 am   BACKBONE|DICT|INTERRES
     7    4    5 1    
     8    4   75 1    
     9    5    6 1    
    10    5   35 1    
    11    5   76 1    
    12    6    7 1    
    13    6   77 1    
    14    6   78 1    
    15    7    8 1    
    16    8    9 1    
    17    8   79 1    
    18    8   80 1    
    19    9   10 ar   
    20    9   14 ar   
    21   10   11 ar   
    22   10   81 1    
    23   11   12 ar   
    24   11   71 1    
    25   12   13 ar   
    26   12   82 1    
    27   13   14 ar   
    28   13   15 1    
    29   14   83 1    
    30   15   16 1    
    31   15   84 1    
    32   15   85 1    
    33   16   17 1    
    34   17   18 1    
    35   17   86 1    
    36   17   87 1    
    37   18   19 1    
    38   18   37 1    
    39   18   88 1    
    40   19   20 am   BACKBONE|DICT|INTERRES
    41   19   89 1    
    42   20   21 2    
    43   20   22 1    
    44   22   23 1    
    45   22   24 1    
    46   22   90 1    
    47   23   91 1    
    48   23   92 1    
    49   23   93 1    
    50   24   25 am   BACKBONE|DICT|INTERRES
    51   24   94 1    
    52   25   26 2    
    53   25   27 1    
    54   27   28 1    
    55   27   29 1    
    56   27   95 1    
    57   28   96 1    
    58   28   97 1    
    59   28   98 1    
    60   29   30 am   BACKBONE|DICT|INTERRES
    61   29   99 1    
    62   30   31 2    
    63   30   32 1    
    64   32   33 1    
    65   32   34 1    
    66   32  100 1    
    67   33  101 1    
    68   33  102 1    
    69   33  103 1    
    70   34   35 am   BACKBONE|DICT|INTERRES
    71   34  104 1    
    72   35   36 2    
    73   37   38 2    
    74   37   39 am   BACKBONE|DICT|INTERRES
    75   39   40 1    
    76   39  105 1    
    77   40   41 1    
    78   40   42 1    
    79   40  106 1    
    80   41  107 1    
    81   41  108 1    
    82   41  109 1    
    83   42   43 2    
    84   42   44 am   BACKBONE|DICT|INTERRES
    85   44   45 1    
    86   44  110 1    
    87   45   46 1    
    88   45   47 1    
    89   45  111 1    
    90   46  112 1    
    91   46  113 1    
    92   46  114 1    
    93   47   48 2    
    94   47   49 am   BACKBONE|DICT|INTERRES
    95   49   50 1    
    96   49  115 1    
    97   50   51 1    
    98   50   52 1    
    99   50  116 1    
   100   51  117 1    
   101   51  118 1    
   102   51  119 1    
   103   52   53 2    
   104   52   54 am   BACKBONE|DICT|INTERRES
   105   54   55 1    
   106   54  120 1    
   107   55   56 1    
   108   55   57 1    
   109   55  121 1    
   110   56  122 1    
   111   56  123 1    
   112   56  124 1    
   113   57   58 2    
   114   57   59 am   BACKBONE|DICT|INTERRES
   115   59   60 1    
   116   59  125 1    
   117   60   61 1    
   118   60   62 1    
   119   60  126 1    
   120   61  127 1    
   121   61  128 1    
   122   61  129 1    
   123   62   63 2    
   124   62   64 am   BACKBONE|DICT|INTERRES
   125   64   65 1    
   126   64  130 1    
   127   65   66 1    
   128   65   69 1    
   129   65  131 1    
   130   66   67 am   BACKBONE|DICT|INTERRES
   131   66   68 2    
   132   67  132 1    
   133   67  133 1    
   134   69   70 1    
   135   69  134 1    
   136   69  135 1    
   137   70   71 1    
   138   71  136 1    
   139   71  137 1    
@<TRIPOS>SUBSTRUCTURE
     1 UNK         1 GROUP             0       ****    0 ROOT    
