@<TRIPOS>MOLECULE
3R136
137   139    1
SMALL
USER_CHARGES


@<TRIPOS>ATOM
      1 CA         28.6844   18.8311   -1.1350 C.3       0 UNK        -0.1979 
      2 C          28.2402   19.7454   -0.0026 C.2       0 UNK         0.4864 
      3 O          27.2962   19.4086    0.7132 O.2       0 UNK        -0.5359 
      4 N          28.9147   20.8948    0.1535 N.am      1 UNK        -0.4318 
      5 CA         28.6765   21.9217    1.1816 C.3       1 UNK         0.0824 
      6 C6         29.0031   21.4521    2.6268 C.3       12 UNK        -0.0944 
      7 S7         30.7067   20.8195    2.7966 S.3       12 UNK        -0.2672 
      8 C8         31.5010   22.1155    3.8110 C.3       12 UNK         0.0333 
      9 C9         31.7837   23.4363    3.0918 C.ar      12 UNK        -0.0807 
     10 C10        31.8739   24.6081    3.8495 C.ar      12 UNK        -0.0894 
     11 C11        32.2050   25.8263    3.2501 C.ar      12 UNK        -0.0804 
     12 C12        32.4326   25.8734    1.8721 C.ar      12 UNK        -0.0824 
     13 C13        32.3180   24.7189    1.0888 C.ar      12 UNK        -0.0762 
     14 C14        32.0143   23.5035    1.7114 C.ar      12 UNK        -0.0782 
     15 C15        32.5693   24.7380   -0.4191 C.3       12 UNK         0.0230 
     16 S16        32.0457   26.2639   -1.2770 S.3       12 UNK        -0.2608 
     17 C17        30.2245   26.1967   -1.1607 C.3       12 UNK        -0.0989 
     18 CA         29.6285   27.5596   -0.7182 C.3       5 UNK         0.0716 
     19 N          28.2552   27.7416   -1.1910 N.am      5 UNK        -0.4135 
     20 C          27.7552   28.8895   -1.6704 C.2       4 UNK         0.5031 
     21 O          28.4207   29.9113   -1.8426 O.2       4 UNK        -0.5229 
     22 CA         26.2553   28.9129   -2.0244 C.3       4 UNK         0.0329 
     23 CB         26.0476   28.5513   -3.5038 C.3       4 UNK        -0.2001 
     24 N          25.4460   28.0202   -1.1921 N.am      4 UNK        -0.4303 
     25 C          25.2295   28.1887    0.1200 C.2       3 UNK         0.5044 
     26 O          25.6123   29.1702    0.7555 O.2       3 UNK        -0.5152 
     27 CA         24.4842   27.0613    0.8604 C.3       3 UNK         0.0319 
     28 CB         22.9929   27.4082    0.9929 C.3       3 UNK        -0.2001 
     29 N          24.6158   25.7174    0.2761 N.am      3 UNK        -0.4354 
     30 C          25.7672   25.0835    0.0140 C.2       2 UNK         0.4964 
     31 O          26.8788   25.6083    0.1145 O.2       2 UNK        -0.5047 
     32 CA         25.6628   23.6367   -0.4934 C.3       2 UNK         0.0288 
     33 CB         25.4443   23.6200   -2.0149 C.3       2 UNK        -0.2113 
     34 N          26.8781   22.8817   -0.1802 N.am      2 UNK        -0.4145 
     35 C          27.2697   22.5492    1.0592 C.2       1 UNK         0.5006 
     36 O          26.5737   22.7255    2.0622 O.2       1 UNK        -0.5103 
     37 C          29.6842   27.7366    0.8082 C.2       5 UNK         0.5055 
     38 O          30.5492   28.4574    1.3019 O.2       5 UNK        -0.5220 
     39 N          28.7463   27.1068    1.5308 N.am      6 UNK        -0.4450 
     40 CA         28.6727   27.0340    2.9945 C.3       6 UNK         0.0367 
     41 CB         27.7651   25.8559    3.3887 C.3       6 UNK        -0.1929 
     42 C          28.2801   28.3441    3.7121 C.2       6 UNK         0.5070 
     43 O          27.7926   28.2977    4.8430 O.2       6 UNK        -0.5237 
     44 N          28.5141   29.4974    3.0790 N.am      7 UNK        -0.4739 
     45 CA         28.2107   30.8353    3.5839 C.3       7 UNK         0.0276 
     46 CB         27.9899   31.7733    2.3827 C.3       7 UNK        -0.1927 
     47 C          29.2945   31.3449    4.5549 C.2       7 UNK         0.5013 
     48 O          29.8822   32.4012    4.3134 O.2       7 UNK        -0.5193 
     49 N          29.5347   30.5782    5.6306 N.am      8 UNK        -0.4253 
     50 CA         30.3998   30.8606    6.7861 C.3       8 UNK         0.0242 
     51 CB         29.6654   31.8030    7.7648 C.3       8 UNK        -0.2000 
     52 C          31.8051   31.3646    6.4026 C.2       8 UNK         0.4948 
     53 O          32.6782   30.5544    6.0861 O.2       8 UNK        -0.5275 
     54 N          31.9865   32.6942    6.3943 N.am      9 UNK        -0.4246 
     55 CA         33.2018   33.4153    5.9968 C.3       9 UNK         0.0261 
     56 CB         32.9719   34.9232    6.1903 C.3       9 UNK        -0.1959 
     57 C          33.6938   33.1242    4.5643 C.2       9 UNK         0.5033 
     58 O          34.8539   33.4101    4.2651 O.2       9 UNK        -0.5390 
     59 N          32.8357   32.5310    3.7206 N.am      10 UNK        -0.4215 
     60 CA         33.1889   31.9497    2.4228 C.3       10 UNK         0.0240 
     61 CB         31.9103   31.4645    1.7262 C.3       10 UNK        -0.1982 
     62 C          34.2320   30.8136    2.4989 C.2       10 UNK         0.4970 
     63 O          34.9343   30.6001    1.5095 O.2       10 UNK        -0.4916 
     64 N          34.3460   30.1373    3.6517 N.am      11 UNK        -0.4279 
     65 CA         35.4448   29.2091    3.9649 C.3       11 UNK         0.1003 
     66 C          36.1418   29.5131    5.3212 C.2       11 UNK         0.5709 
     67 N          35.4943   30.1711    6.2764 N.am      11 UNK        -0.7358 
     68 O          37.3068   29.1649    5.5008 O.2       11 UNK        -0.4999 
     69 C69        35.0310   27.7201    3.8210 C.3       12 UNK        -0.0954 
     70 S70        33.8195   27.1582    5.0665 S.3       12 UNK        -0.2268 
     71 C71        32.2896   27.0926    4.0932 C.3       12 UNK         0.0203 
     72 H72        29.5242   19.2469   -1.6914 H         1 UNK         0.0888 
     73 H73        28.9885   17.8633   -0.7372 H         1 UNK         0.0888 
     74 H74        27.8624   18.6705   -1.8320 H         1 UNK         0.0888 
     75 H75        29.6828   21.0893   -0.4734 H         1 UNK         0.3017 
     76 H76        29.3619   22.7381    0.9509 H         1 UNK         0.0873 
     77 H77        28.3162   20.6631    2.9375 H         1 UNK         0.0745 
     78 H78        28.8597   22.2711    3.3342 H         1 UNK         0.0745 
     79 H79        32.4511   21.7233    4.1758 H         1 UNK         0.0705 
     80 H80        30.8851   22.2907    4.6946 H         1 UNK         0.0705 
     81 H81        31.7071   24.5721    4.9177 H         1 UNK         0.1334 
     82 H82        32.6887   26.8169    1.4101 H         1 UNK         0.1417 
     83 H83        31.9728   22.6030    1.1150 H         1 UNK         0.1562 
     84 H84        32.0748   23.8915   -0.8985 H         1 UNK         0.0748 
     85 H85        33.6386   24.6022   -0.5857 H         1 UNK         0.0748 
     86 H86        29.9063   25.3817   -0.5068 H         1 UNK         0.0940 
     87 H87        29.8582   25.9362   -2.1551 H         1 UNK         0.0940 
     88 H88        30.2463   28.3487   -1.1532 H         1 UNK         0.0703 
     89 H89        27.6214   26.9675   -1.0205 H         1 UNK         0.3081 
     90 H90        25.8974   29.9329   -1.8685 H         1 UNK         0.0719 
     91 H91        26.6201   29.2168   -4.1514 H         1 UNK         0.0809 
     92 H92        26.3678   27.5314   -3.7205 H         1 UNK         0.0809 
     93 H93        25.0005   28.6443   -3.7923 H         1 UNK         0.0809 
     94 H94        25.0779   27.1901   -1.6325 H         1 UNK         0.2990 
     95 H95        24.9081   27.0141    1.8647 H         1 UNK         0.0690 
     96 H96        22.8584   28.3907    1.4479 H         1 UNK         0.0788 
     97 H97        22.4716   26.6889    1.6245 H         1 UNK         0.0788 
     98 H98        22.4955   27.4280    0.0227 H         1 UNK         0.0788 
     99 H99        23.7517   25.2147    0.1312 H         1 UNK         0.2993 
    100 H100       24.8183   23.1494   -0.0014 H         1 UNK         0.0949 
    101 H101       25.3569   22.6004   -2.3910 H         1 UNK         0.0767 
    102 H102       24.5257   24.1418   -2.2868 H         1 UNK         0.0767 
    103 H103       26.2642   24.1046   -2.5470 H         1 UNK         0.0767 
    104 H104       27.5097   22.7051   -0.9467 H         1 UNK         0.3013 
    105 H105       28.0481   26.5579    1.0315 H         1 UNK         0.3121 
    106 H106       29.6703   26.7920    3.3498 H         1 UNK         0.0774 
    107 H107       26.7363   26.0134    3.0663 H         1 UNK         0.0815 
    108 H108       28.1167   24.9244    2.9459 H         1 UNK         0.0815 
    109 H109       27.7516   25.7072    4.4691 H         1 UNK         0.0815 
    110 H110       29.0275   29.4443    2.2065 H         1 UNK         0.2987 
    111 H111       27.2746   30.7968    4.1456 H         1 UNK         0.0949 
    112 H112       27.7416   32.7830    2.7124 H         1 UNK         0.0806 
    113 H113       28.8771   31.8420    1.7535 H         1 UNK         0.0806 
    114 H114       27.1660   31.4260    1.7583 H         1 UNK         0.0806 
    115 H115       29.0132   29.7080    5.6776 H         1 UNK         0.3010 
    116 H116       30.5524   29.9090    7.2981 H         1 UNK         0.0829 
    117 H117       29.3591   32.7365    7.2914 H         1 UNK         0.0813 
    118 H118       28.7662   31.3288    8.1585 H         1 UNK         0.0813 
    119 H119       30.2935   32.0526    8.6215 H         1 UNK         0.0813 
    120 H120       31.1865   33.2677    6.6197 H         1 UNK         0.3038 
    121 H121       33.9985   33.1000    6.6736 H         1 UNK         0.0769 
    122 H122       32.1623   35.2909    5.5585 H         1 UNK         0.0811 
    123 H123       33.8677   35.4918    5.9359 H         1 UNK         0.0811 
    124 H124       32.7258   35.1590    7.2259 H         1 UNK         0.0811 
    125 H125       31.8775   32.3983    4.0326 H         1 UNK         0.3204 
    126 H126       33.6264   32.7455    1.8167 H         1 UNK         0.0748 
    127 H127       32.1332   30.9964    0.7661 H         1 UNK         0.0771 
    128 H128       31.3833   30.7282    2.3331 H         1 UNK         0.0771 
    129 H129       31.2290   32.2928    1.5334 H         1 UNK         0.0771 
    130 H130       33.7210   30.3532    4.4213 H         1 UNK         0.2980 
    131 H131       36.2371   29.3708    3.2314 H         1 UNK         0.0545 
    132 H132       35.9732   30.3651    7.1408 H         1 UNK         0.3459 
    133 H133       34.5006   30.3663    6.1974 H         1 UNK         0.3459 
    134 H134       35.9116   27.0811    3.9054 H         1 UNK         0.0616 
    135 H135       34.6394   27.5424    2.8191 H         1 UNK         0.0616 
    136 H136       31.4494   27.1255    4.7876 H         1 UNK         0.0634 
    137 H137       32.2081   27.9872    3.4734 H         1 UNK         0.0634 
@<TRIPOS>BOND
     1    1    2 1    
     2    1   72 1    
     3    1   73 1    
     4    1   74 1    
     5    2    3 2    
     6    2    4 am   BACKBONE|DICT|INTERRES
     7    4    5 1    
     8    4   75 1    
     9    5    6 1    
    10    5   35 1    
    11    5   76 1    
    12    6    7 1    
    13    6   77 1    
    14    6   78 1    
    15    7    8 1    
    16    8    9 1    
    17    8   79 1    
    18    8   80 1    
    19    9   10 ar   
    20    9   14 ar   
    21   10   11 ar   
    22   10   81 1    
    23   11   12 ar   
    24   11   71 1    
    25   12   13 ar   
    26   12   82 1    
    27   13   14 ar   
    28   13   15 1    
    29   14   83 1    
    30   15   16 1    
    31   15   84 1    
    32   15   85 1    
    33   16   17 1    
    34   17   18 1    
    35   17   86 1    
    36   17   87 1    
    37   18   19 1    
    38   18   37 1    
    39   18   88 1    
    40   19   20 am   BACKBONE|DICT|INTERRES
    41   19   89 1    
    42   20   21 2    
    43   20   22 1    
    44   22   23 1    
    45   22   24 1    
    46   22   90 1    
    47   23   91 1    
    48   23   92 1    
    49   23   93 1    
    50   24   25 am   BACKBONE|DICT|INTERRES
    51   24   94 1    
    52   25   26 2    
    53   25   27 1    
    54   27   28 1    
    55   27   29 1    
    56   27   95 1    
    57   28   96 1    
    58   28   97 1    
    59   28   98 1    
    60   29   30 am   BACKBONE|DICT|INTERRES
    61   29   99 1    
    62   30   31 2    
    63   30   32 1    
    64   32   33 1    
    65   32   34 1    
    66   32  100 1    
    67   33  101 1    
    68   33  102 1    
    69   33  103 1    
    70   34   35 am   BACKBONE|DICT|INTERRES
    71   34  104 1    
    72   35   36 2    
    73   37   38 2    
    74   37   39 am   BACKBONE|DICT|INTERRES
    75   39   40 1    
    76   39  105 1    
    77   40   41 1    
    78   40   42 1    
    79   40  106 1    
    80   41  107 1    
    81   41  108 1    
    82   41  109 1    
    83   42   43 2    
    84   42   44 am   BACKBONE|DICT|INTERRES
    85   44   45 1    
    86   44  110 1    
    87   45   46 1    
    88   45   47 1    
    89   45  111 1    
    90   46  112 1    
    91   46  113 1    
    92   46  114 1    
    93   47   48 2    
    94   47   49 am   BACKBONE|DICT|INTERRES
    95   49   50 1    
    96   49  115 1    
    97   50   51 1    
    98   50   52 1    
    99   50  116 1    
   100   51  117 1    
   101   51  118 1    
   102   51  119 1    
   103   52   53 2    
   104   52   54 am   BACKBONE|DICT|INTERRES
   105   54   55 1    
   106   54  120 1    
   107   55   56 1    
   108   55   57 1    
   109   55  121 1    
   110   56  122 1    
   111   56  123 1    
   112   56  124 1    
   113   57   58 2    
   114   57   59 am   BACKBONE|DICT|INTERRES
   115   59   60 1    
   116   59  125 1    
   117   60   61 1    
   118   60   62 1    
   119   60  126 1    
   120   61  127 1    
   121   61  128 1    
   122   61  129 1    
   123   62   63 2    
   124   62   64 am   BACKBONE|DICT|INTERRES
   125   64   65 1    
   126   64  130 1    
   127   65   66 1    
   128   65   69 1    
   129   65  131 1    
   130   66   67 am   BACKBONE|DICT|INTERRES
   131   66   68 2    
   132   67  132 1    
   133   67  133 1    
   134   69   70 1    
   135   69  134 1    
   136   69  135 1    
   137   70   71 1    
   138   71  136 1    
   139   71  137 1    
@<TRIPOS>SUBSTRUCTURE
     1 UNK         1 GROUP             0       ****    0 ROOT    
