@<TRIPOS>MOLECULE
3R136
137   139    1
SMALL
USER_CHARGES


@<TRIPOS>ATOM
      1 CA         28.0370   21.3725    1.9357 C.3       0 UNK        -0.1979 
      2 C          29.0138   20.5093    1.1381 C.2       0 UNK         0.4864 
      3 O          29.7129   19.7092    1.7579 O.2       0 UNK        -0.5359 
      4 N          29.1324   20.5926   -0.1980 N.am      1 UNK        -0.4318 
      5 CA         28.4491   21.4298   -1.1986 C.3       1 UNK         0.0824 
      6 C6         28.7217   22.9538   -1.0473 C.3       12 UNK        -0.0944 
      7 S7         30.4819   23.3881   -1.2195 S.3       12 UNK        -0.2672 
      8 C8         30.4655   25.0945   -0.5740 C.3       12 UNK         0.0333 
      9 C9         31.0898   25.2048    0.8121 C.ar      12 UNK        -0.0807 
     10 C10        32.1247   26.1173    1.0380 C.ar      12 UNK        -0.0894 
     11 C11        32.6901   26.2530    2.3087 C.ar      12 UNK        -0.0804 
     12 C12        32.2227   25.4586    3.3591 C.ar      12 UNK        -0.0824 
     13 C13        31.1895   24.5412    3.1489 C.ar      12 UNK        -0.0762 
     14 C14        30.6263   24.4212    1.8743 C.ar      12 UNK        -0.0782 
     15 C15        30.6851   23.6814    4.3005 C.3       12 UNK         0.0230 
     16 S16        28.9665   24.0724    4.7630 S.3       12 UNK        -0.2608 
     17 C17        29.0737   25.8462    5.1822 C.3       12 UNK        -0.0989 
     18 CA         28.5688   26.7488    4.0257 C.3       5 UNK         0.0716 
     19 N          27.1832   26.4375    3.6547 N.am      5 UNK        -0.4135 
     20 C          26.6061   26.7170    2.4804 C.2       4 UNK         0.5031 
     21 O          27.1744   27.3169    1.5626 O.2       4 UNK        -0.5229 
     22 CA         25.1297   26.3055    2.3373 C.3       4 UNK         0.0329 
     23 CB         24.2173   27.3715    2.9671 C.3       4 UNK        -0.2001 
     24 N          24.7445   26.1209    0.9365 N.am      4 UNK        -0.4303 
     25 C          25.1963   25.1378    0.1488 C.2       3 UNK         0.5044 
     26 O          25.9163   24.2178    0.5442 O.2       3 UNK        -0.5152 
     27 CA         24.7993   25.2313   -1.3352 C.3       3 UNK         0.0319 
     28 CB         25.5757   26.3664   -2.0261 C.3       3 UNK        -0.2001 
     29 N          25.0842   23.9839   -2.0419 N.am      3 UNK        -0.4354 
     30 C          24.3205   22.8827   -2.0220 C.2       2 UNK         0.4964 
     31 O          23.2055   22.8249   -1.5027 O.2       2 UNK        -0.5047 
     32 CA         24.9182   21.6298   -2.6886 C.3       2 UNK         0.0288 
     33 CB         24.6124   21.6164   -4.1955 C.3       2 UNK        -0.2113 
     34 N          26.3685   21.5593   -2.4801 N.am      2 UNK        -0.4145 
     35 C          26.9383   21.1335   -1.3433 C.2       1 UNK         0.5006 
     36 O          26.3132   20.5527   -0.4532 O.2       1 UNK        -0.5103 
     37 C          28.7387   28.2521    4.3339 C.2       5 UNK         0.5055 
     38 O          29.0351   28.6264    5.4693 O.2       5 UNK        -0.5220 
     39 N          28.5228   29.0868    3.3138 N.am      6 UNK        -0.4450 
     40 CA         28.6147   30.5440    3.3627 C.3       6 UNK         0.0367 
     41 CB         27.2702   31.1363    3.8296 C.3       6 UNK        -0.1929 
     42 C          29.0755   31.0977    2.0047 C.2       6 UNK         0.5070 
     43 O          28.6659   32.1932    1.6188 O.2       6 UNK        -0.5237 
     44 N          29.9155   30.3320    1.2911 N.am      7 UNK        -0.4739 
     45 CA         30.4901   30.7133   -0.0057 C.3       7 UNK         0.0276 
     46 CB         31.1194   29.4738   -0.6621 C.3       7 UNK        -0.1927 
     47 C          31.5212   31.8535    0.1014 C.2       7 UNK         0.5013 
     48 O          31.7266   32.5829   -0.8695 O.2       7 UNK        -0.5193 
     49 N          32.1317   31.9898    1.2812 N.am      8 UNK        -0.4253 
     50 CA         33.0460   33.0464    1.6879 C.3       8 UNK         0.0242 
     51 CB         34.4773   32.6941    1.2426 C.3       8 UNK        -0.2000 
     52 C          32.9539   33.1584    3.2137 C.2       8 UNK         0.4948 
     53 O          32.4601   32.2323    3.8637 O.2       8 UNK        -0.5275 
     54 N          33.4744   34.2585    3.7744 N.am      9 UNK        -0.4246 
     55 CA         33.5291   34.5033    5.2238 C.3       9 UNK         0.0261 
     56 CB         34.0837   35.9130    5.4845 C.3       9 UNK        -0.1959 
     57 C          34.3420   33.4505    6.0034 C.2       9 UNK         0.5033 
     58 O          34.0419   33.1910    7.1695 O.2       9 UNK        -0.5390 
     59 N          35.3271   32.8377    5.3325 N.am      10 UNK        -0.4215 
     60 CA         36.1409   31.7314    5.8379 C.3       10 UNK         0.0240 
     61 CB         37.3266   31.5124    4.8833 C.3       10 UNK        -0.1982 
     62 C          35.3650   30.4143    6.0366 C.2       10 UNK         0.4970 
     63 O          35.8554   29.5506    6.7654 O.2       10 UNK        -0.4916 
     64 N          34.1952   30.2651    5.3972 N.am      11 UNK        -0.4279 
     65 CA         33.3394   29.0733    5.5152 C.3       11 UNK         0.1003 
     66 C          32.5706   28.9679    6.8637 C.2       11 UNK         0.5709 
     67 N          32.4901   30.0214    7.6692 N.am      11 UNK        -0.7358 
     68 O          32.0598   27.9007    7.1940 O.2       11 UNK        -0.4999 
     69 C69        32.3708   28.9216    4.3133 C.3       12 UNK        -0.0954 
     70 S70        33.2073   28.9552    2.6929 S.3       12 UNK        -0.2268 
     71 C71        33.8172   27.2479    2.5395 C.3       12 UNK         0.0203 
     72 H72        27.3505   20.7282    2.4832 H         1 UNK         0.0888 
     73 H73        28.5786   21.9699    2.6652 H         1 UNK         0.0888 
     74 H74        27.4304   22.0427    1.3360 H         1 UNK         0.0888 
     75 H75        29.7989   19.9592   -0.6157 H         1 UNK         0.3017 
     76 H76        28.8896   21.1205   -2.1481 H         1 UNK         0.0873 
     77 H77        28.1901   23.5204   -1.8132 H         1 UNK         0.0745 
     78 H78        28.3565   23.3391   -0.0981 H         1 UNK         0.0745 
     79 H79        29.4465   25.4832   -0.5383 H         1 UNK         0.0705 
     80 H80        31.0023   25.7252   -1.2841 H         1 UNK         0.0705 
     81 H81        32.4915   26.7300    0.2261 H         1 UNK         0.1334 
     82 H82        32.6619   25.5590    4.3424 H         1 UNK         0.1417 
     83 H83        29.8218   23.7203    1.7107 H         1 UNK         0.1562 
     84 H84        31.3220   23.7930    5.1795 H         1 UNK         0.0748 
     85 H85        30.7436   22.6305    4.0135 H         1 UNK         0.0748 
     86 H86        30.1046   26.0932    5.4445 H         1 UNK         0.0940 
     87 H87        28.4872   26.0178    6.0867 H         1 UNK         0.0940 
     88 H88        29.1983   26.5483    3.1569 H         1 UNK         0.0703 
     89 H89        26.6402   25.9643    4.3617 H         1 UNK         0.3081 
     90 H90        24.9799   25.3576    2.8589 H         1 UNK         0.0719 
     91 H91        24.4447   27.5105    4.0248 H         1 UNK         0.0809 
     92 H92        23.1673   27.0861    2.8998 H         1 UNK         0.0809 
     93 H93        24.3341   28.3409    2.4805 H         1 UNK         0.0809 
     94 H94        24.1917   26.8568    0.5223 H         1 UNK         0.2990 
     95 H95        23.7294   25.4411   -1.3980 H         1 UNK         0.0690 
     96 H96        25.3130   26.4424   -3.0815 H         1 UNK         0.0788 
     97 H97        26.6542   26.2172   -1.9576 H         1 UNK         0.0788 
     98 H98        25.3544   27.3324   -1.5708 H         1 UNK         0.0788 
     99 H99        25.9901   23.9245   -2.4780 H         1 UNK         0.2993 
    100 H100       24.4467   20.7535   -2.2377 H         1 UNK         0.0949 
    101 H101       23.5367   21.6505   -4.3739 H         1 UNK         0.0767 
    102 H102       25.0549   22.4707   -4.7092 H         1 UNK         0.0767 
    103 H103       24.9890   20.7086   -4.6672 H         1 UNK         0.0767 
    104 H104       26.9507   21.9625   -3.2003 H         1 UNK         0.3013 
    105 H105       28.2082   28.6804    2.4339 H         1 UNK         0.3121 
    106 H106       29.3849   30.8305    4.0822 H         1 UNK         0.0774 
    107 H107       27.3263   32.2222    3.9150 H         1 UNK         0.0815 
    108 H108       26.4662   30.9020    3.1311 H         1 UNK         0.0815 
    109 H109       26.9859   30.7525    4.8094 H         1 UNK         0.0815 
    110 H110       30.2212   29.4524    1.6826 H         1 UNK         0.2987 
    111 H111       29.6783   31.0659   -0.6457 H         1 UNK         0.0949 
    112 H112       30.3943   28.6670   -0.7710 H         1 UNK         0.0806 
    113 H113       31.4933   29.7103   -1.6591 H         1 UNK         0.0806 
    114 H114       31.9613   29.0955   -0.0823 H         1 UNK         0.0806 
    115 H115       31.8792   31.3657    2.0388 H         1 UNK         0.3010 
    116 H116       32.7316   33.9931    1.2437 H         1 UNK         0.0829 
    117 H117       34.5389   32.5855    0.1596 H         1 UNK         0.0813 
    118 H118       35.1849   33.4732    1.5275 H         1 UNK         0.0813 
    119 H119       34.8181   31.7590    1.6899 H         1 UNK         0.0813 
    120 H120       33.8623   34.9757    3.1774 H         1 UNK         0.3038 
    121 H121       32.5052   34.4632    5.6018 H         1 UNK         0.0769 
    122 H122       35.0986   36.0265    5.1013 H         1 UNK         0.0811 
    123 H123       34.1135   36.1285    6.5536 H         1 UNK         0.0811 
    124 H124       33.4606   36.6777    5.0203 H         1 UNK         0.0811 
    125 H125       35.4987   33.1271    4.3811 H         1 UNK         0.3204 
    126 H126       36.5348   32.0246    6.8133 H         1 UNK         0.0748 
    127 H127       37.9802   30.7182    5.2471 H         1 UNK         0.0771 
    128 H128       36.9934   31.2276    3.8843 H         1 UNK         0.0771 
    129 H129       37.9356   32.4121    4.7920 H         1 UNK         0.0771 
    130 H130       33.8203   31.0185    4.8322 H         1 UNK         0.2980 
    131 H131       34.0001   28.2051    5.4951 H         1 UNK         0.0545 
    132 H132       32.9188   30.8987    7.4137 H         1 UNK         0.3459 
    133 H133       31.9947   29.9363    8.5420 H         1 UNK         0.3459 
    134 H134       31.6368   29.7279    4.3232 H         1 UNK         0.0616 
    135 H135       31.7962   27.9990    4.3948 H         1 UNK         0.0616 
    136 H136       34.3940   26.9844    3.4270 H         1 UNK         0.0634 
    137 H137       34.5146   27.2026    1.7021 H         1 UNK         0.0634 
@<TRIPOS>BOND
     1    1    2 1    
     2    1   72 1    
     3    1   73 1    
     4    1   74 1    
     5    2    3 2    
     6    2    4 am   BACKBONE|DICT|INTERRES
     7    4    5 1    
     8    4   75 1    
     9    5    6 1    
    10    5   35 1    
    11    5   76 1    
    12    6    7 1    
    13    6   77 1    
    14    6   78 1    
    15    7    8 1    
    16    8    9 1    
    17    8   79 1    
    18    8   80 1    
    19    9   10 ar   
    20    9   14 ar   
    21   10   11 ar   
    22   10   81 1    
    23   11   12 ar   
    24   11   71 1    
    25   12   13 ar   
    26   12   82 1    
    27   13   14 ar   
    28   13   15 1    
    29   14   83 1    
    30   15   16 1    
    31   15   84 1    
    32   15   85 1    
    33   16   17 1    
    34   17   18 1    
    35   17   86 1    
    36   17   87 1    
    37   18   19 1    
    38   18   37 1    
    39   18   88 1    
    40   19   20 am   BACKBONE|DICT|INTERRES
    41   19   89 1    
    42   20   21 2    
    43   20   22 1    
    44   22   23 1    
    45   22   24 1    
    46   22   90 1    
    47   23   91 1    
    48   23   92 1    
    49   23   93 1    
    50   24   25 am   BACKBONE|DICT|INTERRES
    51   24   94 1    
    52   25   26 2    
    53   25   27 1    
    54   27   28 1    
    55   27   29 1    
    56   27   95 1    
    57   28   96 1    
    58   28   97 1    
    59   28   98 1    
    60   29   30 am   BACKBONE|DICT|INTERRES
    61   29   99 1    
    62   30   31 2    
    63   30   32 1    
    64   32   33 1    
    65   32   34 1    
    66   32  100 1    
    67   33  101 1    
    68   33  102 1    
    69   33  103 1    
    70   34   35 am   BACKBONE|DICT|INTERRES
    71   34  104 1    
    72   35   36 2    
    73   37   38 2    
    74   37   39 am   BACKBONE|DICT|INTERRES
    75   39   40 1    
    76   39  105 1    
    77   40   41 1    
    78   40   42 1    
    79   40  106 1    
    80   41  107 1    
    81   41  108 1    
    82   41  109 1    
    83   42   43 2    
    84   42   44 am   BACKBONE|DICT|INTERRES
    85   44   45 1    
    86   44  110 1    
    87   45   46 1    
    88   45   47 1    
    89   45  111 1    
    90   46  112 1    
    91   46  113 1    
    92   46  114 1    
    93   47   48 2    
    94   47   49 am   BACKBONE|DICT|INTERRES
    95   49   50 1    
    96   49  115 1    
    97   50   51 1    
    98   50   52 1    
    99   50  116 1    
   100   51  117 1    
   101   51  118 1    
   102   51  119 1    
   103   52   53 2    
   104   52   54 am   BACKBONE|DICT|INTERRES
   105   54   55 1    
   106   54  120 1    
   107   55   56 1    
   108   55   57 1    
   109   55  121 1    
   110   56  122 1    
   111   56  123 1    
   112   56  124 1    
   113   57   58 2    
   114   57   59 am   BACKBONE|DICT|INTERRES
   115   59   60 1    
   116   59  125 1    
   117   60   61 1    
   118   60   62 1    
   119   60  126 1    
   120   61  127 1    
   121   61  128 1    
   122   61  129 1    
   123   62   63 2    
   124   62   64 am   BACKBONE|DICT|INTERRES
   125   64   65 1    
   126   64  130 1    
   127   65   66 1    
   128   65   69 1    
   129   65  131 1    
   130   66   67 am   BACKBONE|DICT|INTERRES
   131   66   68 2    
   132   67  132 1    
   133   67  133 1    
   134   69   70 1    
   135   69  134 1    
   136   69  135 1    
   137   70   71 1    
   138   71  136 1    
   139   71  137 1    
@<TRIPOS>SUBSTRUCTURE
     1 UNK         1 GROUP             0       ****    0 ROOT    
