@<TRIPOS>MOLECULE
3R136
137   139    1
SMALL
USER_CHARGES


@<TRIPOS>ATOM
      1 CA         27.4998   21.5437    1.3238 C.3       0 UNK        -0.1979 
      2 C          27.7038   22.4609    0.1297 C.2       0 UNK         0.4864 
      3 O          26.8402   22.5242   -0.7468 O.2       0 UNK        -0.5359 
      4 N          28.8413   23.1666    0.0735 N.am      1 UNK        -0.4318 
      5 CA         29.1703   24.0959   -1.0126 C.3       1 UNK         0.0824 
      6 C6         30.6727   24.4567   -1.0803 C.3       12 UNK        -0.0944 
      7 S7         31.7518   22.9786   -1.0474 S.3       12 UNK        -0.2672 
      8 C8         33.1404   23.4921    0.0201 C.3       12 UNK         0.0333 
      9 C9         32.6759   24.0990    1.3363 C.ar      12 UNK        -0.0807 
     10 C10        32.8585   25.4643    1.5725 C.ar      12 UNK        -0.0894 
     11 C11        32.3806   26.0521    2.7446 C.ar      12 UNK        -0.0804 
     12 C12        31.7409   25.2583    3.6998 C.ar      12 UNK        -0.0824 
     13 C13        31.5564   23.8889    3.4789 C.ar      12 UNK        -0.0762 
     14 C14        32.0318   23.3129    2.2965 C.ar      12 UNK        -0.0782 
     15 C15        30.8396   23.0296    4.5110 C.3       12 UNK         0.0230 
     16 S16        29.0452   22.9447    4.1982 S.3       12 UNK        -0.2608 
     17 C17        28.5074   24.6161    4.6831 C.3       12 UNK        -0.0989 
     18 CA         28.1603   25.5006    3.4445 C.3       5 UNK         0.0716 
     19 N          26.7541   25.4190    3.0126 N.am      5 UNK        -0.4135 
     20 C          25.6837   25.7897    3.7383 C.2       4 UNK         0.5031 
     21 O          25.7303   26.0592    4.9393 O.2       4 UNK        -0.5229 
     22 CA         24.3266   25.9398    3.0271 C.3       4 UNK         0.0329 
     23 CB         23.8081   27.3834    3.1583 C.3       4 UNK        -0.2001 
     24 N          24.3456   25.5956    1.6068 N.am      4 UNK        -0.4303 
     25 C          24.1368   24.3770    1.1015 C.2       3 UNK         0.5044 
     26 O          24.0163   23.3638    1.7901 O.2       3 UNK        -0.5152 
     27 CA         24.0307   24.2698   -0.4301 C.3       3 UNK         0.0319 
     28 CB         22.6236   24.6647   -0.9198 C.3       3 UNK        -0.2001 
     29 N          25.0831   24.9857   -1.1657 N.am      3 UNK        -0.4354 
     30 C          25.3161   26.3056   -1.2681 C.2       2 UNK         0.4964 
     31 O          24.6181   27.1661   -0.7293 O.2       2 UNK        -0.5047 
     32 CA         26.5599   26.7244   -2.0842 C.3       2 UNK         0.0288 
     33 CB         27.0659   28.1395   -1.7273 C.3       2 UNK        -0.2113 
     34 N          27.6429   25.7331   -2.0040 N.am      2 UNK        -0.4145 
     35 C          28.2893   25.3544   -0.8916 C.2       1 UNK         0.5006 
     36 O          28.1801   25.9212    0.2017 O.2       1 UNK        -0.5103 
     37 C          28.5264   26.9895    3.6216 C.2       5 UNK         0.5055 
     38 O          28.7981   27.4396    4.7362 O.2       5 UNK        -0.5220 
     39 N          28.4517   27.7391    2.5138 N.am      6 UNK        -0.4450 
     40 CA         28.5482   29.2010    2.5034 C.3       6 UNK         0.0367 
     41 CB         27.1533   29.8057    2.7625 C.3       6 UNK        -0.1929 
     42 C          29.1868   29.7367    1.2119 C.2       6 UNK         0.5070 
     43 O          28.9178   30.8757    0.8293 O.2       6 UNK        -0.5237 
     44 N          30.0216   28.9214    0.5513 N.am      7 UNK        -0.4739 
     45 CA         30.7102   29.2794   -0.6966 C.3       7 UNK         0.0276 
     46 CB         31.2701   28.0064   -1.3472 C.3       7 UNK        -0.1927 
     47 C          31.8144   30.3451   -0.5419 C.2       7 UNK         0.5013 
     48 O          32.2237   30.9307   -1.5454 O.2       7 UNK        -0.5193 
     49 N          32.2723   30.5845    0.6909 N.am      8 UNK        -0.4253 
     50 CA         33.2276   31.6199    1.0651 C.3       8 UNK         0.0242 
     51 CB         34.6643   31.0833    0.9367 C.3       8 UNK        -0.2000 
     52 C          32.9191   32.0364    2.5056 C.2       8 UNK         0.4948 
     53 O          32.4126   31.2185    3.2758 O.2       8 UNK        -0.5275 
     54 N          33.2527   33.2857    2.8550 N.am      9 UNK        -0.4246 
     55 CA         32.9975   33.8831    4.1734 C.3       9 UNK         0.0261 
     56 CB         33.2403   35.3996    4.0919 C.3       9 UNK        -0.1959 
     57 C          33.8177   33.2693    5.3250 C.2       9 UNK         0.5033 
     58 O          33.4478   33.4429    6.4868 O.2       9 UNK        -0.5390 
     59 N          34.9091   32.5679    4.9922 N.am      10 UNK        -0.4215 
     60 CA         35.7864   31.8659    5.9322 C.3       10 UNK         0.0240 
     61 CB         37.1365   31.6094    5.2397 C.3       10 UNK        -0.1982 
     62 C          35.2011   30.5459    6.4752 C.2       10 UNK         0.4970 
     63 O          35.8126   29.9518    7.3648 O.2       10 UNK        -0.4916 
     64 N          34.0648   30.0940    5.9348 N.am      11 UNK        -0.4279 
     65 CA         33.4248   28.8109    6.2442 C.3       11 UNK         0.1003 
     66 C          31.8763   28.9117    6.2080 C.2       11 UNK         0.5709 
     67 N          31.1792   27.8233    6.5038 N.am      11 UNK        -0.7358 
     68 O          31.2960   29.9573    5.9247 O.2       11 UNK        -0.4999 
     69 C69        34.0012   27.6477    5.3787 C.3       12 UNK        -0.0954 
     70 S70        34.1486   28.0206    3.5943 S.3       12 UNK        -0.2268 
     71 C71        32.5171   27.5522    2.9450 C.3       12 UNK         0.0203 
     72 H72        28.4476   21.2789    1.7913 H         1 UNK         0.0888 
     73 H73        26.8680   22.0306    2.0667 H         1 UNK         0.0888 
     74 H74        27.0114   20.6207    1.0127 H         1 UNK         0.0888 
     75 H75        29.5228   23.0977    0.8152 H         1 UNK         0.3017 
     76 H76        28.9231   23.5908   -1.9494 H         1 UNK         0.0873 
     77 H77        30.9251   25.1364   -0.2686 H         1 UNK         0.0745 
     78 H78        30.8872   24.9981   -2.0030 H         1 UNK         0.0745 
     79 H79        33.7701   22.6251    0.2245 H         1 UNK         0.0705 
     80 H80        33.7627   24.1977   -0.5328 H         1 UNK         0.0705 
     81 H81        33.3506   26.0785    0.8309 H         1 UNK         0.1334 
     82 H82        31.3719   25.7139    4.6070 H         1 UNK         0.1417 
     83 H83        31.8847   22.2571    2.1126 H         1 UNK         0.1562 
     84 H84        31.0243   23.4054    5.5186 H         1 UNK         0.0748 
     85 H85        31.2446   22.0167    4.4911 H         1 UNK         0.0748 
     86 H86        29.2943   25.0554    5.2958 H         1 UNK         0.0940 
     87 H87        27.6619   24.5144    5.3622 H         1 UNK         0.0940 
     88 H88        28.7685   25.1547    2.6077 H         1 UNK         0.0703 
     89 H89        26.6155   25.2427    2.0276 H         1 UNK         0.3081 
     90 H90        23.6231   25.2820    3.5420 H         1 UNK         0.0719 
     91 H91        23.7260   27.6819    4.2043 H         1 UNK         0.0809 
     92 H92        24.4720   28.0954    2.6668 H         1 UNK         0.0809 
     93 H93        22.8171   27.4902    2.7166 H         1 UNK         0.0809 
     94 H94        24.4315   26.3617    0.9421 H         1 UNK         0.2990 
     95 H95        24.1721   23.2159   -0.6751 H         1 UNK         0.0690 
     96 H96        22.5237   24.5193   -1.9954 H         1 UNK         0.0788 
     97 H97        22.3880   25.7061   -0.6989 H         1 UNK         0.0788 
     98 H98        21.8600   24.0527   -0.4380 H         1 UNK         0.0788 
     99 H99        25.7670   24.3650   -1.5813 H         1 UNK         0.2993 
    100 H100       26.2391   26.7448   -3.1269 H         1 UNK         0.0949 
    101 H101       27.3010   28.2336   -0.6675 H         1 UNK         0.0767 
    102 H102       27.9601   28.3965   -2.2946 H         1 UNK         0.0767 
    103 H103       26.3106   28.8923   -1.9556 H         1 UNK         0.0767 
    104 H104       27.8134   25.2138   -2.8548 H         1 UNK         0.3013 
    105 H105       28.2369   27.2824    1.6293 H         1 UNK         0.3121 
    106 H106       29.2134   29.5211    3.3090 H         1 UNK         0.0774 
    107 H107       26.4578   29.5605    1.9592 H         1 UNK         0.0815 
    108 H108       26.7284   29.4417    3.6982 H         1 UNK         0.0815 
    109 H109       27.2012   30.8929    2.8351 H         1 UNK         0.0815 
    110 H110       30.1872   27.9955    0.9177 H         1 UNK         0.2987 
    111 H111       29.9678   29.7032   -1.3767 H         1 UNK         0.0949 
    112 H112       30.4640   27.3268   -1.6177 H         1 UNK         0.0806 
    113 H113       31.8113   28.2384   -2.2656 H         1 UNK         0.0806 
    114 H114       31.9593   27.4807   -0.6864 H         1 UNK         0.0806 
    115 H115       31.8467   30.1152    1.4800 H         1 UNK         0.3010 
    116 H116       33.0967   32.4874    0.4142 H         1 UNK         0.0829 
    117 H117       34.8322   30.2227    1.5851 H         1 UNK         0.0813 
    118 H118       35.3956   31.8457    1.2072 H         1 UNK         0.0813 
    119 H119       34.8821   30.7762   -0.0864 H         1 UNK         0.0813 
    120 H120       33.6757   33.8884    2.1629 H         1 UNK         0.3038 
    121 H121       31.9443   33.7193    4.4124 H         1 UNK         0.0769 
    122 H122       32.5962   35.8664    3.3464 H         1 UNK         0.0811 
    123 H123       34.2752   35.6302    3.8361 H         1 UNK         0.0811 
    124 H124       33.0264   35.8816    5.0471 H         1 UNK         0.0811 
    125 H125       35.1331   32.4812    4.0120 H         1 UNK         0.3204 
    126 H126       35.9614   32.5173    6.7911 H         1 UNK         0.0748 
    127 H127       37.0274   30.9541    4.3742 H         1 UNK         0.0771 
    128 H128       37.5943   32.5398    4.9030 H         1 UNK         0.0771 
    129 H129       37.8430   31.1330    5.9210 H         1 UNK         0.0771 
    130 H130       33.5806   30.6436    5.2347 H         1 UNK         0.2980 
    131 H131       33.6437   28.5809    7.2886 H         1 UNK         0.0545 
    132 H132       31.6299   26.9715    6.7938 H         1 UNK         0.3459 
    133 H133       30.1745   27.8522    6.3882 H         1 UNK         0.3459 
    134 H134       33.4465   26.7199    5.5178 H         1 UNK         0.0616 
    135 H135       35.0098   27.4256    5.7296 H         1 UNK         0.0616 
    136 H136       32.3875   28.0500    1.9846 H         1 UNK         0.0634 
    137 H137       31.7227   27.9338    3.5856 H         1 UNK         0.0634 
@<TRIPOS>BOND
     1    1    2 1    
     2    1   72 1    
     3    1   73 1    
     4    1   74 1    
     5    2    3 2    
     6    2    4 am   BACKBONE|DICT|INTERRES
     7    4    5 1    
     8    4   75 1    
     9    5    6 1    
    10    5   35 1    
    11    5   76 1    
    12    6    7 1    
    13    6   77 1    
    14    6   78 1    
    15    7    8 1    
    16    8    9 1    
    17    8   79 1    
    18    8   80 1    
    19    9   10 ar   
    20    9   14 ar   
    21   10   11 ar   
    22   10   81 1    
    23   11   12 ar   
    24   11   71 1    
    25   12   13 ar   
    26   12   82 1    
    27   13   14 ar   
    28   13   15 1    
    29   14   83 1    
    30   15   16 1    
    31   15   84 1    
    32   15   85 1    
    33   16   17 1    
    34   17   18 1    
    35   17   86 1    
    36   17   87 1    
    37   18   19 1    
    38   18   37 1    
    39   18   88 1    
    40   19   20 am   BACKBONE|DICT|INTERRES
    41   19   89 1    
    42   20   21 2    
    43   20   22 1    
    44   22   23 1    
    45   22   24 1    
    46   22   90 1    
    47   23   91 1    
    48   23   92 1    
    49   23   93 1    
    50   24   25 am   BACKBONE|DICT|INTERRES
    51   24   94 1    
    52   25   26 2    
    53   25   27 1    
    54   27   28 1    
    55   27   29 1    
    56   27   95 1    
    57   28   96 1    
    58   28   97 1    
    59   28   98 1    
    60   29   30 am   BACKBONE|DICT|INTERRES
    61   29   99 1    
    62   30   31 2    
    63   30   32 1    
    64   32   33 1    
    65   32   34 1    
    66   32  100 1    
    67   33  101 1    
    68   33  102 1    
    69   33  103 1    
    70   34   35 am   BACKBONE|DICT|INTERRES
    71   34  104 1    
    72   35   36 2    
    73   37   38 2    
    74   37   39 am   BACKBONE|DICT|INTERRES
    75   39   40 1    
    76   39  105 1    
    77   40   41 1    
    78   40   42 1    
    79   40  106 1    
    80   41  107 1    
    81   41  108 1    
    82   41  109 1    
    83   42   43 2    
    84   42   44 am   BACKBONE|DICT|INTERRES
    85   44   45 1    
    86   44  110 1    
    87   45   46 1    
    88   45   47 1    
    89   45  111 1    
    90   46  112 1    
    91   46  113 1    
    92   46  114 1    
    93   47   48 2    
    94   47   49 am   BACKBONE|DICT|INTERRES
    95   49   50 1    
    96   49  115 1    
    97   50   51 1    
    98   50   52 1    
    99   50  116 1    
   100   51  117 1    
   101   51  118 1    
   102   51  119 1    
   103   52   53 2    
   104   52   54 am   BACKBONE|DICT|INTERRES
   105   54   55 1    
   106   54  120 1    
   107   55   56 1    
   108   55   57 1    
   109   55  121 1    
   110   56  122 1    
   111   56  123 1    
   112   56  124 1    
   113   57   58 2    
   114   57   59 am   BACKBONE|DICT|INTERRES
   115   59   60 1    
   116   59  125 1    
   117   60   61 1    
   118   60   62 1    
   119   60  126 1    
   120   61  127 1    
   121   61  128 1    
   122   61  129 1    
   123   62   63 2    
   124   62   64 am   BACKBONE|DICT|INTERRES
   125   64   65 1    
   126   64  130 1    
   127   65   66 1    
   128   65   69 1    
   129   65  131 1    
   130   66   67 am   BACKBONE|DICT|INTERRES
   131   66   68 2    
   132   67  132 1    
   133   67  133 1    
   134   69   70 1    
   135   69  134 1    
   136   69  135 1    
   137   70   71 1    
   138   71  136 1    
   139   71  137 1    
@<TRIPOS>SUBSTRUCTURE
     1 UNK         1 GROUP             0       ****    0 ROOT    
