@<TRIPOS>MOLECULE
3R136
137   139    1
SMALL
USER_CHARGES


@<TRIPOS>ATOM
      1 CA         33.0046   21.7239    3.9548 C.3       0 UNK        -0.1979 
      2 C          32.0342   21.0288    3.0120 C.2       0 UNK         0.4864 
      3 O          32.3611   19.9709    2.4722 O.2       0 UNK        -0.5359 
      4 N          30.8445   21.6086    2.8188 N.am      1 UNK        -0.4318 
      5 CA         29.7609   21.0358    2.0198 C.3       1 UNK         0.0824 
      6 C6         29.9250   21.2212    0.4835 C.3       12 UNK        -0.0944 
      7 S7         30.0983   22.9531   -0.0724 S.3       12 UNK        -0.2672 
      8 C8         31.8969   23.1084   -0.2908 C.3       12 UNK         0.0333 
      9 C9         32.3418   24.5155    0.0688 C.ar      12 UNK        -0.0807 
     10 C10        32.9513   24.7683    1.2997 C.ar      12 UNK        -0.0894 
     11 C11        33.3155   26.0694    1.6622 C.ar      12 UNK        -0.0804 
     12 C12        33.0709   27.1186    0.7695 C.ar      12 UNK        -0.0824 
     13 C13        32.4607   26.8814   -0.4676 C.ar      12 UNK        -0.0762 
     14 C14        32.1159   25.5711   -0.8172 C.ar      12 UNK        -0.0782 
     15 C15        32.1969   28.0473   -1.4183 C.3       12 UNK         0.0230 
     16 S16        30.5855   27.9624   -2.2754 S.3       12 UNK        -0.2608 
     17 C17        29.4133   27.8635   -0.8801 C.3       12 UNK        -0.0989 
     18 CA         28.0546   28.5322   -1.2092 C.3       5 UNK         0.0716 
     19 N          26.9742   27.9991   -0.3736 N.am      5 UNK        -0.4135 
     20 C          25.6692   28.2478   -0.5645 C.2       4 UNK         0.5031 
     21 O          25.2336   28.8964   -1.5177 O.2       4 UNK        -0.5229 
     22 CA         24.6627   27.6646    0.4474 C.3       4 UNK         0.0329 
     23 CB         23.8572   26.5220   -0.1947 C.3       4 UNK        -0.2001 
     24 N          25.2634   27.1711    1.6881 N.am      4 UNK        -0.4303 
     25 C          25.7953   27.9257    2.6600 C.2       3 UNK         0.5044 
     26 O          25.8270   29.1550    2.6239 O.2       3 UNK        -0.5152 
     27 CA         26.3816   27.1926    3.8846 C.3       3 UNK         0.0319 
     28 CB         25.6303   27.5857    5.1678 C.3       3 UNK        -0.2001 
     29 N          26.3788   25.7300    3.7646 N.am      3 UNK        -0.4354 
     30 C          27.2047   25.0185    2.9870 C.2       2 UNK         0.4964 
     31 O          28.0743   25.5145    2.2659 O.2       2 UNK        -0.5047 
     32 CA         26.9545   23.5070    2.9586 C.3       2 UNK         0.0288 
     33 CB         25.7461   23.1805    2.0561 C.3       2 UNK        -0.2113 
     34 N          28.1499   22.8311    2.4648 N.am      2 UNK        -0.4145 
     35 C          28.4160   21.5247    2.5824 C.2       1 UNK         0.5006 
     36 O          27.6700   20.7234    3.1486 O.2       1 UNK        -0.5103 
     37 C          28.1346   30.0708   -1.1052 C.2       5 UNK         0.5055 
     38 O          27.9589   30.6226   -0.0165 O.2       5 UNK        -0.5220 
     39 N          28.4348   30.7313   -2.2324 N.am      6 UNK        -0.4450 
     40 CA         28.5275   32.1919   -2.3581 C.3       6 UNK         0.0367 
     41 CB         28.7227   32.5584   -3.8383 C.3       6 UNK        -0.1929 
     42 C          29.6304   32.8376   -1.4976 C.2       6 UNK         0.5070 
     43 O          29.5255   34.0205   -1.1724 O.2       6 UNK        -0.5237 
     44 N          30.6523   32.0533   -1.1381 N.am      7 UNK        -0.4739 
     45 CA         31.7434   32.4381   -0.2465 C.3       7 UNK         0.0276 
     46 CB         33.0028   32.7365   -1.0829 C.3       7 UNK        -0.1927 
     47 C          31.9610   31.3366    0.8026 C.2       7 UNK         0.5013 
     48 O          33.0981   30.9133    1.0137 O.2       7 UNK        -0.5193 
     49 N          30.8625   30.8582    1.4111 N.am      8 UNK        -0.4253 
     50 CA         30.8660   29.8001    2.4279 C.3       8 UNK         0.0242 
     51 CB         29.4278   29.4319    2.8266 C.3       8 UNK        -0.2000 
     52 C          31.6893   30.1550    3.6746 C.2       8 UNK         0.4948 
     53 O          32.5249   29.3531    4.0904 O.2       8 UNK        -0.5275 
     54 N          31.4404   31.3466    4.2411 N.am      9 UNK        -0.4246 
     55 CA         32.0785   31.8912    5.4466 C.3       9 UNK         0.0261 
     56 CB         33.5169   32.3562    5.1224 C.3       9 UNK        -0.1959 
     57 C          31.9861   30.9025    6.6270 C.2       9 UNK         0.5033 
     58 O          30.8866   30.6823    7.1386 O.2       9 UNK        -0.5390 
     59 N          33.1164   30.2833    6.9953 N.am      10 UNK        -0.4215 
     60 CA         33.2233   29.2337    8.0126 C.3       10 UNK         0.0240 
     61 CB         34.7063   28.8877    8.2245 C.3       10 UNK        -0.1982 
     62 C          32.4148   27.9590    7.6995 C.2       10 UNK         0.4970 
     63 O          32.0317   27.2596    8.6385 O.2       10 UNK        -0.4916 
     64 N          32.1555   27.6829    6.4134 N.am      11 UNK        -0.4279 
     65 CA         31.2718   26.5953    5.9652 C.3       11 UNK         0.1003 
     66 C          29.7552   26.9108    6.1195 C.2       11 UNK         0.5709 
     67 N          29.3465   28.1327    6.4480 N.am      11 UNK        -0.7358 
     68 O          28.9303   26.0158    5.9601 O.2       11 UNK        -0.4999 
     69 C69        31.6097   26.1185    4.5267 C.3       12 UNK        -0.0954 
     70 S70        33.2988   25.4383    4.4097 S.3       12 UNK        -0.2268 
     71 C71        34.0037   26.3533    2.9961 C.3       12 UNK         0.0203 
     72 H72        33.3650   21.0219    4.7062 H         1 UNK         0.0888 
     73 H73        33.8647   22.1019    3.4032 H         1 UNK         0.0888 
     74 H74        32.5354   22.5579    4.4754 H         1 UNK         0.0888 
     75 H75        30.6182   22.4651    3.3047 H         1 UNK         0.3017 
     76 H76        29.7652   19.9579    2.2000 H         1 UNK         0.0873 
     77 H77        29.0684   20.7869   -0.0350 H         1 UNK         0.0745 
     78 H78        30.7867   20.6492    0.1364 H         1 UNK         0.0745 
     79 H79        32.4192   22.3790    0.3294 H         1 UNK         0.0705 
     80 H80        32.1590   22.8804   -1.3248 H         1 UNK         0.0705 
     81 H81        33.1344   23.9507    1.9812 H         1 UNK         0.1334 
     82 H82        33.3606   28.1258    1.0394 H         1 UNK         0.1417 
     83 H83        31.6442   25.3716   -1.7697 H         1 UNK         0.1562 
     84 H84        32.9896   28.0712   -2.1670 H         1 UNK         0.0748 
     85 H85        32.2524   28.9948   -0.8836 H         1 UNK         0.0748 
     86 H86        29.8635   28.2894    0.0171 H         1 UNK         0.0940 
     87 H87        29.2699   26.8029   -0.6634 H         1 UNK         0.0940 
     88 H88        27.7887   28.2760   -2.2375 H         1 UNK         0.0703 
     89 H89        27.2475   27.4680    0.4402 H         1 UNK         0.3081 
     90 H90        23.9695   28.4676    0.7071 H         1 UNK         0.0719 
     91 H91        24.4958   25.6804   -0.4665 H         1 UNK         0.0809 
     92 H92        23.0827   26.1537    0.4785 H         1 UNK         0.0809 
     93 H93        23.3574   26.8581   -1.1044 H         1 UNK         0.0809 
     94 H94        25.2801   26.1704    1.8133 H         1 UNK         0.2990 
     95 H95        27.4171   27.5193    3.9870 H         1 UNK         0.0690 
     96 H96        26.0782   27.1204    6.0463 H         1 UNK         0.0788 
     97 H97        24.5810   27.2910    5.1278 H         1 UNK         0.0788 
     98 H98        25.6606   28.6648    5.3251 H         1 UNK         0.0788 
     99 H99        25.6867   25.2401    4.3140 H         1 UNK         0.2993 
    100 H100       26.7577   23.1702    3.9790 H         1 UNK         0.0949 
    101 H101       24.8432   23.6857    2.4012 H         1 UNK         0.0767 
    102 H102       25.9220   23.4888    1.0245 H         1 UNK         0.0767 
    103 H103       25.5275   22.1126    2.0501 H         1 UNK         0.0767 
    104 H104       28.8013   23.4347    1.9734 H         1 UNK         0.3013 
    105 H105       28.5909   30.1971   -3.0759 H         1 UNK         0.3121 
    106 H106       27.5754   32.6099   -2.0244 H         1 UNK         0.0774 
    107 H107       29.6494   32.1445   -4.2379 H         1 UNK         0.0815 
    108 H108       28.7666   33.6406   -3.9700 H         1 UNK         0.0815 
    109 H109       27.8980   32.1941   -4.4511 H         1 UNK         0.0815 
    110 H110       30.6436   31.0910   -1.4467 H         1 UNK         0.2987 
    111 H111       31.4798   33.3409    0.3092 H         1 UNK         0.0949 
    112 H112       33.3353   31.8582   -1.6375 H         1 UNK         0.0806 
    113 H113       32.8203   33.5367   -1.8004 H         1 UNK         0.0806 
    114 H114       33.8296   33.0559   -0.4471 H         1 UNK         0.0806 
    115 H115       29.9590   31.2267    1.1403 H         1 UNK         0.3010 
    116 H116       31.3207   28.9163    1.9805 H         1 UNK         0.0829 
    117 H117       28.8577   29.0463    1.9832 H         1 UNK         0.0813 
    118 H118       29.4305   28.6532    3.5889 H         1 UNK         0.0813 
    119 H119       28.8815   30.2843    3.2318 H         1 UNK         0.0813 
    120 H120       30.7131   31.9176    3.8347 H         1 UNK         0.3038 
    121 H121       31.5034   32.7709    5.7396 H         1 UNK         0.0769 
    122 H122       34.1414   31.5464    4.7431 H         1 UNK         0.0811 
    123 H123       34.0063   32.7756    6.0027 H         1 UNK         0.0811 
    124 H124       33.5078   33.1381    4.3629 H         1 UNK         0.0811 
    125 H125       33.9571   30.4996    6.4796 H         1 UNK         0.3204 
    126 H126       32.8303   29.6433    8.9455 H         1 UNK         0.0748 
    127 H127       34.8236   28.1305    9.0013 H         1 UNK         0.0771 
    128 H128       35.1622   28.4941    7.3149 H         1 UNK         0.0771 
    129 H129       35.2783   29.7612    8.5382 H         1 UNK         0.0771 
    130 H130       32.4789   28.3139    5.6845 H         1 UNK         0.2980 
    131 H131       31.4478   25.7424    6.6236 H         1 UNK         0.0545 
    132 H132       28.3610   28.3003    6.5633 H         1 UNK         0.3459 
    133 H133       30.0054   28.8810    6.6280 H         1 UNK         0.3459 
    134 H134       30.9247   25.3302    4.2088 H         1 UNK         0.0616 
    135 H135       31.4829   26.9309    3.8105 H         1 UNK         0.0616 
    136 H136       33.9845   27.4187    3.2240 H         1 UNK         0.0634 
    137 H137       35.0555   26.0810    2.9026 H         1 UNK         0.0634 
@<TRIPOS>BOND
     1    1    2 1    
     2    1   72 1    
     3    1   73 1    
     4    1   74 1    
     5    2    3 2    
     6    2    4 am   BACKBONE|DICT|INTERRES
     7    4    5 1    
     8    4   75 1    
     9    5    6 1    
    10    5   35 1    
    11    5   76 1    
    12    6    7 1    
    13    6   77 1    
    14    6   78 1    
    15    7    8 1    
    16    8    9 1    
    17    8   79 1    
    18    8   80 1    
    19    9   10 ar   
    20    9   14 ar   
    21   10   11 ar   
    22   10   81 1    
    23   11   12 ar   
    24   11   71 1    
    25   12   13 ar   
    26   12   82 1    
    27   13   14 ar   
    28   13   15 1    
    29   14   83 1    
    30   15   16 1    
    31   15   84 1    
    32   15   85 1    
    33   16   17 1    
    34   17   18 1    
    35   17   86 1    
    36   17   87 1    
    37   18   19 1    
    38   18   37 1    
    39   18   88 1    
    40   19   20 am   BACKBONE|DICT|INTERRES
    41   19   89 1    
    42   20   21 2    
    43   20   22 1    
    44   22   23 1    
    45   22   24 1    
    46   22   90 1    
    47   23   91 1    
    48   23   92 1    
    49   23   93 1    
    50   24   25 am   BACKBONE|DICT|INTERRES
    51   24   94 1    
    52   25   26 2    
    53   25   27 1    
    54   27   28 1    
    55   27   29 1    
    56   27   95 1    
    57   28   96 1    
    58   28   97 1    
    59   28   98 1    
    60   29   30 am   BACKBONE|DICT|INTERRES
    61   29   99 1    
    62   30   31 2    
    63   30   32 1    
    64   32   33 1    
    65   32   34 1    
    66   32  100 1    
    67   33  101 1    
    68   33  102 1    
    69   33  103 1    
    70   34   35 am   BACKBONE|DICT|INTERRES
    71   34  104 1    
    72   35   36 2    
    73   37   38 2    
    74   37   39 am   BACKBONE|DICT|INTERRES
    75   39   40 1    
    76   39  105 1    
    77   40   41 1    
    78   40   42 1    
    79   40  106 1    
    80   41  107 1    
    81   41  108 1    
    82   41  109 1    
    83   42   43 2    
    84   42   44 am   BACKBONE|DICT|INTERRES
    85   44   45 1    
    86   44  110 1    
    87   45   46 1    
    88   45   47 1    
    89   45  111 1    
    90   46  112 1    
    91   46  113 1    
    92   46  114 1    
    93   47   48 2    
    94   47   49 am   BACKBONE|DICT|INTERRES
    95   49   50 1    
    96   49  115 1    
    97   50   51 1    
    98   50   52 1    
    99   50  116 1    
   100   51  117 1    
   101   51  118 1    
   102   51  119 1    
   103   52   53 2    
   104   52   54 am   BACKBONE|DICT|INTERRES
   105   54   55 1    
   106   54  120 1    
   107   55   56 1    
   108   55   57 1    
   109   55  121 1    
   110   56  122 1    
   111   56  123 1    
   112   56  124 1    
   113   57   58 2    
   114   57   59 am   BACKBONE|DICT|INTERRES
   115   59   60 1    
   116   59  125 1    
   117   60   61 1    
   118   60   62 1    
   119   60  126 1    
   120   61  127 1    
   121   61  128 1    
   122   61  129 1    
   123   62   63 2    
   124   62   64 am   BACKBONE|DICT|INTERRES
   125   64   65 1    
   126   64  130 1    
   127   65   66 1    
   128   65   69 1    
   129   65  131 1    
   130   66   67 am   BACKBONE|DICT|INTERRES
   131   66   68 2    
   132   67  132 1    
   133   67  133 1    
   134   69   70 1    
   135   69  134 1    
   136   69  135 1    
   137   70   71 1    
   138   71  136 1    
   139   71  137 1    
@<TRIPOS>SUBSTRUCTURE
     1 UNK         1 GROUP             0       ****    0 ROOT    
