@<TRIPOS>MOLECULE
3R136
137   139    1
SMALL
USER_CHARGES


@<TRIPOS>ATOM
      1 CA         29.3814   23.2636   -1.6223 C.3       0 UNK        -0.1979 
      2 C          28.2936   23.5934   -0.6113 C.2       0 UNK         0.4864 
      3 O          27.3747   24.3497   -0.9239 O.2       0 UNK        -0.5359 
      4 N          28.3636   23.0004    0.5892 N.am      1 UNK        -0.4318 
      5 CA         27.4086   23.1969    1.6927 C.3       1 UNK         0.0824 
      6 C6         27.9738   22.6698    3.0368 C.3       12 UNK        -0.0944 
      7 S7         29.2178   23.8143    3.7183 S.3       12 UNK        -0.2672 
      8 C8         30.8009   23.0333    3.2847 C.3       12 UNK         0.0333 
      9 C9         31.7739   24.0730    2.7488 C.ar      12 UNK        -0.0807 
     10 C10        32.5359   24.8525    3.6257 C.ar      12 UNK        -0.0894 
     11 C11        33.4244   25.8180    3.1385 C.ar      12 UNK        -0.0804 
     12 C12        33.5400   25.9933    1.7521 C.ar      12 UNK        -0.0824 
     13 C13        32.7805   25.2251    0.8650 C.ar      12 UNK        -0.0762 
     14 C14        31.9022   24.2641    1.3712 C.ar      12 UNK        -0.0782 
     15 C15        32.9127   25.4212   -0.6410 C.3       12 UNK         0.0230 
     16 S16        32.3137   27.0480   -1.2078 S.3       12 UNK        -0.2608 
     17 C17        30.5625   27.0306   -0.6857 C.3       12 UNK        -0.0989 
     18 CA         29.9285   28.4412   -0.5376 C.3       5 UNK         0.0716 
     19 N          28.5086   28.3474   -0.2179 N.am      5 UNK        -0.4135 
     20 C          27.5406   28.0169   -1.0750 C.2       4 UNK         0.5031 
     21 O          27.7231   27.8056   -2.2776 O.2       4 UNK        -0.5229 
     22 CA         26.1252   27.9154   -0.4977 C.3       4 UNK         0.0329 
     23 CB         25.3955   29.2688   -0.5573 C.3       4 UNK        -0.2001 
     24 N          25.4005   26.9177   -1.2757 N.am      4 UNK        -0.4303 
     25 C          24.4390   26.1133   -0.8136 C.2       3 UNK         0.5044 
     26 O          23.9568   26.2050    0.3166 O.2       3 UNK        -0.5152 
     27 CA         23.9423   24.9975   -1.7464 C.3       3 UNK         0.0319 
     28 CB         24.3600   25.1666   -3.2223 C.3       3 UNK        -0.2001 
     29 N          24.4823   23.7410   -1.2388 N.am      3 UNK        -0.4354 
     30 C          23.7664   22.6688   -0.8716 C.2       2 UNK         0.4964 
     31 O          22.5456   22.5799   -1.0097 O.2       2 UNK        -0.5047 
     32 CA         24.5321   21.4853   -0.2418 C.3       2 UNK         0.0288 
     33 CB         24.7468   20.3705   -1.2790 C.3       2 UNK        -0.2113 
     34 N          25.8300   21.8710    0.3192 N.am      2 UNK        -0.4145 
     35 C          25.9939   22.6382    1.4079 C.2       1 UNK         0.5006 
     36 O          25.0666   22.9455    2.1588 O.2       1 UNK        -0.5103 
     37 C          30.5875   29.2675    0.5800 C.2       5 UNK         0.5055 
     38 O          30.1136   29.2204    1.7183 O.2       5 UNK        -0.5220 
     39 N          31.6672   29.9822    0.2291 N.am      6 UNK        -0.4450 
     40 CA         32.6589   30.6225    1.1039 C.3       6 UNK         0.0367 
     41 CB         33.6520   29.5582    1.6005 C.3       6 UNK        -0.1929 
     42 C          32.0720   31.4508    2.2613 C.2       6 UNK         0.5070 
     43 O          32.3959   31.1961    3.4243 O.2       6 UNK        -0.5237 
     44 N          31.2086   32.4145    1.9081 N.am      7 UNK        -0.4739 
     45 CA         30.5164   33.3501    2.8064 C.3       7 UNK         0.0276 
     46 CB         31.5162   34.3527    3.4217 C.3       7 UNK        -0.1927 
     47 C          29.6507   32.6332    3.8617 C.2       7 UNK         0.5013 
     48 O          29.7353   32.9475    5.0499 O.2       7 UNK        -0.5193 
     49 N          28.8438   31.6730    3.3859 N.am      8 UNK        -0.4253 
     50 CA         27.9718   30.7781    4.1557 C.3       8 UNK         0.0242 
     51 CB         26.8689   31.5629    4.8996 C.3       8 UNK        -0.2000 
     52 C          28.7797   29.8377    5.0691 C.2       8 UNK         0.4948 
     53 O          28.5279   29.7704    6.2739 O.2       8 UNK        -0.5275 
     54 N          29.7318   29.1237    4.4518 N.am      9 UNK        -0.4246 
     55 CA         30.6141   28.1082    5.0320 C.3       9 UNK         0.0261 
     56 CB         29.7962   26.8965    5.5232 C.3       9 UNK        -0.1959 
     57 C          31.5661   28.6584    6.1105 C.2       9 UNK         0.5033 
     58 O          31.8778   27.9466    7.0677 O.2       9 UNK        -0.5390 
     59 N          32.0276   29.9042    5.9386 N.am      10 UNK        -0.4215 
     60 CA         32.9846   30.5484    6.8363 C.3       10 UNK         0.0240 
     61 CB         32.8616   32.0764    6.7237 C.3       10 UNK        -0.1982 
     62 C          34.4206   30.0915    6.5460 C.2       10 UNK         0.4970 
     63 O          35.1500   29.7828    7.4889 O.2       10 UNK        -0.4916 
     64 N          34.7965   30.0616    5.2566 N.am      11 UNK        -0.4279 
     65 CA         36.1441   29.7029    4.7664 C.3       11 UNK         0.1003 
     66 C          37.2890   30.6517    5.2497 C.2       11 UNK         0.5709 
     67 N          36.9941   31.8704    5.6880 N.am      11 UNK        -0.7358 
     68 O          38.4665   30.3050    5.1878 O.2       11 UNK        -0.4999 
     69 C69        36.4581   28.1827    4.9510 C.3       12 UNK        -0.0954 
     70 S70        35.8612   27.1751    3.5534 S.3       12 UNK        -0.2268 
     71 C71        34.2053   26.6822    4.1312 C.3       12 UNK         0.0203 
     72 H72        28.9348   22.8596   -2.5304 H         1 UNK         0.0888 
     73 H73        29.9350   24.1616   -1.8906 H         1 UNK         0.0888 
     74 H74        30.0886   22.5285   -1.2392 H         1 UNK         0.0888 
     75 H75        29.1189   22.3591    0.7808 H         1 UNK         0.3017 
     76 H76        27.2595   24.2750    1.7918 H         1 UNK         0.0873 
     77 H77        28.3828   21.6633    2.9341 H         1 UNK         0.0745 
     78 H78        27.1877   22.5955    3.7911 H         1 UNK         0.0745 
     79 H79        31.2160   22.5491    4.1699 H         1 UNK         0.0705 
     80 H80        30.6510   22.2446    2.5468 H         1 UNK         0.0705 
     81 H81        32.4245   24.7136    4.6926 H         1 UNK         0.1334 
     82 H82        34.2153   26.7348    1.3514 H         1 UNK         0.1417 
     83 H83        31.3133   23.6662    0.6915 H         1 UNK         0.1562 
     84 H84        32.3785   24.6406   -1.1846 H         1 UNK         0.0748 
     85 H85        33.9624   25.3194   -0.9198 H         1 UNK         0.0748 
     86 H86        30.4570   26.4796    0.2501 H         1 UNK         0.0940 
     87 H87        30.0114   26.4592   -1.4329 H         1 UNK         0.0940 
     88 H88        30.0326   28.9876   -1.4777 H         1 UNK         0.0703 
     89 H89        28.2976   28.5442    0.7524 H         1 UNK         0.3081 
     90 H90        26.1977   27.5825    0.5403 H         1 UNK         0.0719 
     91 H91        25.3065   29.6324   -1.5818 H         1 UNK         0.0809 
     92 H92        24.3910   29.1957   -0.1399 H         1 UNK         0.0809 
     93 H93        25.9295   30.0282    0.0152 H         1 UNK         0.0809 
     94 H94        25.8003   26.7410   -2.1894 H         1 UNK         0.2990 
     95 H95        22.8516   25.0035   -1.6944 H         1 UNK         0.0690 
     96 H96        24.0239   26.1247   -3.6212 H         1 UNK         0.0788 
     97 H97        23.9130   24.3888   -3.8417 H         1 UNK         0.0788 
     98 H98        25.4414   25.1061   -3.3542 H         1 UNK         0.0788 
     99 H99        25.4823   23.7534   -1.0561 H         1 UNK         0.2993 
    100 H100       23.9135   21.0900    0.5671 H         1 UNK         0.0949 
    101 H101       25.2264   19.4992   -0.8323 H         1 UNK         0.0767 
    102 H102       23.7951   20.0366   -1.6951 H         1 UNK         0.0767 
    103 H103       25.3662   20.7070   -2.1116 H         1 UNK         0.0767 
    104 H104       26.6461   21.6529   -0.2330 H         1 UNK         0.3013 
    105 H105       31.9262   29.9604   -0.7479 H         1 UNK         0.3121 
    106 H106       33.2164   31.3238    0.4811 H         1 UNK         0.0774 
    107 H107       34.4654   30.0177    2.1586 H         1 UNK         0.0815 
    108 H108       33.1646   28.8349    2.2540 H         1 UNK         0.0815 
    109 H109       34.1012   29.0173    0.7681 H         1 UNK         0.0815 
    110 H110       30.9994   32.5151    0.9241 H         1 UNK         0.2987 
    111 H111       29.8227   33.9221    2.1878 H         1 UNK         0.0949 
    112 H112       32.2372   33.8596    4.0727 H         1 UNK         0.0806 
    113 H113       32.0720   34.8828    2.6485 H         1 UNK         0.0806 
    114 H114       30.9992   35.1037    4.0202 H         1 UNK         0.0806 
    115 H115       28.9076   31.4695    2.3981 H         1 UNK         0.3010 
    116 H116       27.4741   30.1365    3.4266 H         1 UNK         0.0829 
    117 H117       26.3045   32.1983    4.2172 H         1 UNK         0.0813 
    118 H118       26.1592   30.8814    5.3700 H         1 UNK         0.0813 
    119 H119       27.2774   32.1958    5.6879 H         1 UNK         0.0813 
    120 H120       29.8609   29.2679    3.4488 H         1 UNK         0.3038 
    121 H121       31.2432   27.7660    4.2094 H         1 UNK         0.0769 
    122 H122       29.2217   27.1314    6.4196 H         1 UNK         0.0811 
    123 H123       30.4476   26.0559    5.7643 H         1 UNK         0.0811 
    124 H124       29.0979   26.5583    4.7587 H         1 UNK         0.0811 
    125 H125       31.7932   30.4077    5.0861 H         1 UNK         0.3204 
    126 H126       32.7426   30.2712    7.8647 H         1 UNK         0.0748 
    127 H127       33.5234   32.5741    7.4336 H         1 UNK         0.0771 
    128 H128       33.1234   32.4330    5.7279 H         1 UNK         0.0771 
    129 H129       31.8454   32.4082    6.9387 H         1 UNK         0.0771 
    130 H130       34.1299   30.3640    4.5565 H         1 UNK         0.2980 
    131 H131       36.1242   29.9035    3.6964 H         1 UNK         0.0545 
    132 H132       37.7398   32.4805    5.9833 H         1 UNK         0.3459 
    133 H133       36.0384   32.1841    5.7281 H         1 UNK         0.3459 
    134 H134       37.5308   27.9938    5.0030 H         1 UNK         0.0616 
    135 H135       36.0555   27.7958    5.8877 H         1 UNK         0.0616 
    136 H136       34.3138   26.1580    5.0820 H         1 UNK         0.0634 
    137 H137       33.6311   27.5843    4.3341 H         1 UNK         0.0634 
@<TRIPOS>BOND
     1    1    2 1    
     2    1   72 1    
     3    1   73 1    
     4    1   74 1    
     5    2    3 2    
     6    2    4 am   BACKBONE|DICT|INTERRES
     7    4    5 1    
     8    4   75 1    
     9    5    6 1    
    10    5   35 1    
    11    5   76 1    
    12    6    7 1    
    13    6   77 1    
    14    6   78 1    
    15    7    8 1    
    16    8    9 1    
    17    8   79 1    
    18    8   80 1    
    19    9   10 ar   
    20    9   14 ar   
    21   10   11 ar   
    22   10   81 1    
    23   11   12 ar   
    24   11   71 1    
    25   12   13 ar   
    26   12   82 1    
    27   13   14 ar   
    28   13   15 1    
    29   14   83 1    
    30   15   16 1    
    31   15   84 1    
    32   15   85 1    
    33   16   17 1    
    34   17   18 1    
    35   17   86 1    
    36   17   87 1    
    37   18   19 1    
    38   18   37 1    
    39   18   88 1    
    40   19   20 am   BACKBONE|DICT|INTERRES
    41   19   89 1    
    42   20   21 2    
    43   20   22 1    
    44   22   23 1    
    45   22   24 1    
    46   22   90 1    
    47   23   91 1    
    48   23   92 1    
    49   23   93 1    
    50   24   25 am   BACKBONE|DICT|INTERRES
    51   24   94 1    
    52   25   26 2    
    53   25   27 1    
    54   27   28 1    
    55   27   29 1    
    56   27   95 1    
    57   28   96 1    
    58   28   97 1    
    59   28   98 1    
    60   29   30 am   BACKBONE|DICT|INTERRES
    61   29   99 1    
    62   30   31 2    
    63   30   32 1    
    64   32   33 1    
    65   32   34 1    
    66   32  100 1    
    67   33  101 1    
    68   33  102 1    
    69   33  103 1    
    70   34   35 am   BACKBONE|DICT|INTERRES
    71   34  104 1    
    72   35   36 2    
    73   37   38 2    
    74   37   39 am   BACKBONE|DICT|INTERRES
    75   39   40 1    
    76   39  105 1    
    77   40   41 1    
    78   40   42 1    
    79   40  106 1    
    80   41  107 1    
    81   41  108 1    
    82   41  109 1    
    83   42   43 2    
    84   42   44 am   BACKBONE|DICT|INTERRES
    85   44   45 1    
    86   44  110 1    
    87   45   46 1    
    88   45   47 1    
    89   45  111 1    
    90   46  112 1    
    91   46  113 1    
    92   46  114 1    
    93   47   48 2    
    94   47   49 am   BACKBONE|DICT|INTERRES
    95   49   50 1    
    96   49  115 1    
    97   50   51 1    
    98   50   52 1    
    99   50  116 1    
   100   51  117 1    
   101   51  118 1    
   102   51  119 1    
   103   52   53 2    
   104   52   54 am   BACKBONE|DICT|INTERRES
   105   54   55 1    
   106   54  120 1    
   107   55   56 1    
   108   55   57 1    
   109   55  121 1    
   110   56  122 1    
   111   56  123 1    
   112   56  124 1    
   113   57   58 2    
   114   57   59 am   BACKBONE|DICT|INTERRES
   115   59   60 1    
   116   59  125 1    
   117   60   61 1    
   118   60   62 1    
   119   60  126 1    
   120   61  127 1    
   121   61  128 1    
   122   61  129 1    
   123   62   63 2    
   124   62   64 am   BACKBONE|DICT|INTERRES
   125   64   65 1    
   126   64  130 1    
   127   65   66 1    
   128   65   69 1    
   129   65  131 1    
   130   66   67 am   BACKBONE|DICT|INTERRES
   131   66   68 2    
   132   67  132 1    
   133   67  133 1    
   134   69   70 1    
   135   69  134 1    
   136   69  135 1    
   137   70   71 1    
   138   71  136 1    
   139   71  137 1    
@<TRIPOS>SUBSTRUCTURE
     1 UNK         1 GROUP             0       ****    0 ROOT    
