@<TRIPOS>MOLECULE
3R136
137   139    1
SMALL
USER_CHARGES


@<TRIPOS>ATOM
      1 CA         34.2326   21.8379    3.4666 C.3       0 UNK        -0.1979 
      2 C          33.0935   22.6037    2.8127 C.2       0 UNK         0.4864 
      3 O          33.0608   23.8333    2.8866 O.2       0 UNK        -0.5359 
      4 N          32.1616   21.8938    2.1637 N.am      1 UNK        -0.4318 
      5 CA         30.9756   22.4414    1.4910 C.3       1 UNK         0.0824 
      6 C6         29.8249   21.4051    1.4159 C.3       12 UNK        -0.0944 
      7 S7         29.3796   20.7319    3.0553 S.3       12 UNK        -0.2672 
      8 C8         27.6435   21.2670    3.2443 C.3       12 UNK         0.0333 
      9 C9         27.4118   22.7179    3.6782 C.ar      12 UNK        -0.0807 
     10 C10        28.4439   23.5918    4.0550 C.ar      12 UNK        -0.0894 
     11 C11        28.1555   24.8968    4.4682 C.ar      12 UNK        -0.0804 
     12 C12        26.8258   25.3135    4.5554 C.ar      12 UNK        -0.0824 
     13 C13        25.7907   24.4737    4.1447 C.ar      12 UNK        -0.0762 
     14 C14        26.0907   23.1785    3.7146 C.ar      12 UNK        -0.0782 
     15 C15        24.3519   24.9690    4.1449 C.3       12 UNK         0.0230 
     16 S16        23.9072   25.7111    2.5392 S.3       12 UNK        -0.2608 
     17 C17        24.4696   27.4421    2.7230 C.3       12 UNK        -0.0989 
     18 CA         25.8977   27.7074    2.1673 C.3       5 UNK         0.0716 
     19 N          26.1084   27.2427    0.7947 N.am      5 UNK        -0.4135 
     20 C          25.5195   27.6874   -0.3186 C.2       4 UNK         0.5031 
     21 O          24.7431   28.6438   -0.3548 O.2       4 UNK        -0.5229 
     22 CA         25.8824   26.9245   -1.6098 C.3       4 UNK         0.0329 
     23 CB         25.0278   27.3637   -2.8138 C.3       4 UNK        -0.2001 
     24 N          27.2996   27.0586   -1.9618 N.am      4 UNK        -0.4303 
     25 C          28.3290   26.4707   -1.3376 C.2       3 UNK         0.5044 
     26 O          28.2131   25.7254   -0.3603 O.2       3 UNK        -0.5152 
     27 CA         29.7210   26.8132   -1.8754 C.3       3 UNK         0.0319 
     28 CB         30.1067   28.2579   -1.5150 C.3       3 UNK        -0.2001 
     29 N          30.7034   25.8955   -1.3074 N.am      3 UNK        -0.4354 
     30 C          31.8822   25.5840   -1.8575 C.2       2 UNK         0.4964 
     31 O          32.2577   26.0245   -2.9450 O.2       2 UNK        -0.5047 
     32 CA         32.8259   24.6512   -1.0732 C.3       2 UNK         0.0288 
     33 CB         34.0908   25.4124   -0.6404 C.3       2 UNK        -0.2113 
     34 N          32.2355   24.0250    0.1132 N.am      2 UNK        -0.4145 
     35 C          31.3478   23.0225    0.1087 C.2       1 UNK         0.5006 
     36 O          30.8665   22.5467   -0.9212 O.2       1 UNK        -0.5103 
     37 C          26.3880   29.1503    2.4241 C.2       5 UNK         0.5055 
     38 O          25.8566   29.8322    3.3037 O.2       5 UNK        -0.5220 
     39 N          27.4314   29.5810    1.7013 N.am      6 UNK        -0.4450 
     40 CA         28.1565   30.8310    1.9434 C.3       6 UNK         0.0367 
     41 CB         28.7840   31.3115    0.6233 C.3       6 UNK        -0.1929 
     42 C          29.1985   30.6149    3.0564 C.2       6 UNK         0.5070 
     43 O          30.3986   30.5418    2.7776 O.2       6 UNK        -0.5237 
     44 N          28.7049   30.4349    4.2887 N.am      7 UNK        -0.4739 
     45 CA         29.4838   30.0901    5.4809 C.3       7 UNK         0.0276 
     46 CB         28.5282   29.8463    6.6588 C.3       7 UNK        -0.1927 
     47 C          30.5234   31.1614    5.8287 C.2       7 UNK         0.5013 
     48 O          30.1815   32.3454    5.8664 O.2       7 UNK        -0.5193 
     49 N          31.7747   30.7278    6.0355 N.am      8 UNK        -0.4253 
     50 CA         32.9887   31.5139    6.3041 C.3       8 UNK         0.0242 
     51 CB         32.8490   32.3757    7.5745 C.3       8 UNK        -0.2000 
     52 C          33.4746   32.3521    5.1068 C.2       8 UNK         0.4948 
     53 O          34.6852   32.4975    4.9341 O.2       8 UNK        -0.5275 
     54 N          32.5430   32.8623    4.2910 N.am      9 UNK        -0.4246 
     55 CA         32.7977   33.5511    3.0269 C.3       9 UNK         0.0261 
     56 CB         31.4891   34.1698    2.5106 C.3       9 UNK        -0.1959 
     57 C          33.4224   32.6288    1.9665 C.2       9 UNK         0.5033 
     58 O          34.3036   33.0785    1.2315 O.2       9 UNK        -0.5390 
     59 N          32.9783   31.3653    1.9178 N.am      10 UNK        -0.4215 
     60 CA         33.5233   30.3365    1.0368 C.3       10 UNK         0.0240 
     61 CB         32.7813   30.3283   -0.3088 C.3       10 UNK        -0.1982 
     62 C          33.5281   28.9547    1.7017 C.2       10 UNK         0.4970 
     63 O          34.5983   28.3494    1.7759 O.2       10 UNK        -0.4916 
     64 N          32.3642   28.4632    2.1558 N.am      11 UNK        -0.4279 
     65 CA         32.2564   27.1375    2.7897 C.3       11 UNK         0.1003 
     66 C          32.6741   27.1451    4.2856 C.2       11 UNK         0.5709 
     67 N          33.0859   25.9975    4.8051 N.am      11 UNK        -0.7358 
     68 O          32.5962   28.1589    4.9801 O.2       11 UNK        -0.4999 
     69 C69        30.8881   26.4450    2.5300 C.3       12 UNK        -0.0954 
     70 S70        29.4746   27.1036    3.4647 S.3       12 UNK        -0.2268 
     71 C71        29.2661   25.8801    4.8026 C.3       12 UNK         0.0203 
     72 H72        35.1862   22.1540    3.0448 H         1 UNK         0.0888 
     73 H73        34.2502   22.0374    4.5376 H         1 UNK         0.0888 
     74 H74        34.1362   20.7619    3.3228 H         1 UNK         0.0888 
     75 H75        32.2467   20.8879    2.1279 H         1 UNK         0.3017 
     76 H76        30.6049   23.2797    2.0786 H         1 UNK         0.0873 
     77 H77        30.1040   20.5659    0.7758 H         1 UNK         0.0745 
     78 H78        28.9423   21.8564    0.9583 H         1 UNK         0.0745 
     79 H79        27.1124   21.0755    2.3105 H         1 UNK         0.0705 
     80 H80        27.1830   20.6191    3.9914 H         1 UNK         0.0705 
     81 H81        29.4737   23.2690    4.0351 H         1 UNK         0.1334 
     82 H82        26.6017   26.3156    4.8948 H         1 UNK         0.1417 
     83 H83        25.2867   22.5229    3.4073 H         1 UNK         0.1562 
     84 H84        24.1870   25.6820    4.9539 H         1 UNK         0.0748 
     85 H85        23.6778   24.1336    4.3403 H         1 UNK         0.0748 
     86 H86        24.4097   27.7164    3.7776 H         1 UNK         0.0940 
     87 H87        23.7488   28.0825    2.2116 H         1 UNK         0.0940 
     88 H88        26.5874   27.1004    2.7425 H         1 UNK         0.0703 
     89 H89        26.7752   26.4826    0.6849 H         1 UNK         0.3081 
     90 H90        25.6738   25.8681   -1.4261 H         1 UNK         0.0719 
     91 H91        25.2444   26.7610   -3.6960 H         1 UNK         0.0809 
     92 H92        25.1974   28.4100   -3.0711 H         1 UNK         0.0809 
     93 H93        23.9641   27.2490   -2.5998 H         1 UNK         0.0809 
     94 H94        27.5025   27.6771   -2.7342 H         1 UNK         0.2990 
     95 H95        29.6986   26.6961   -2.9611 H         1 UNK         0.0690 
     96 H96        30.1911   28.3833   -0.4351 H         1 UNK         0.0788 
     97 H97        29.3709   28.9765   -1.8775 H         1 UNK         0.0788 
     98 H98        31.0628   28.5295   -1.9617 H         1 UNK         0.0788 
     99 H99        30.4076   25.4389   -0.4548 H         1 UNK         0.2993 
    100 H100       33.1249   23.8552   -1.7587 H         1 UNK         0.0949 
    101 H101       34.7933   24.7585   -0.1230 H         1 UNK         0.0767 
    102 H102       34.6136   25.8280   -1.5030 H         1 UNK         0.0767 
    103 H103       33.8523   26.2429    0.0242 H         1 UNK         0.0767 
    104 H104       32.6149   24.2980    1.0152 H         1 UNK         0.3013 
    105 H105       27.8385   28.9449    1.0327 H         1 UNK         0.3121 
    106 H106       27.4612   31.6031    2.2803 H         1 UNK         0.0774 
    107 H107       29.3412   32.2373    0.7672 H         1 UNK         0.0815 
    108 H108       29.4736   30.5772    0.2130 H         1 UNK         0.0815 
    109 H109       28.0197   31.5078   -0.1287 H         1 UNK         0.0815 
    110 H110       27.6997   30.4819    4.4003 H         1 UNK         0.2987 
    111 H111       30.0133   29.1596    5.2770 H         1 UNK         0.0949 
    112 H112       27.9456   30.7376    6.8956 H         1 UNK         0.0806 
    113 H113       27.8319   29.0356    6.4425 H         1 UNK         0.0806 
    114 H114       29.0798   29.5678    7.5578 H         1 UNK         0.0806 
    115 H115       31.9575   29.7398    5.8688 H         1 UNK         0.3010 
    116 H116       33.7690   30.7753    6.4955 H         1 UNK         0.0829 
    117 H117       32.5504   31.7730    8.4321 H         1 UNK         0.0813 
    118 H118       33.7988   32.8494    7.8260 H         1 UNK         0.0813 
    119 H119       32.1157   33.1732    7.4519 H         1 UNK         0.0813 
    120 H120       31.5730   32.7307    4.5615 H         1 UNK         0.3038 
    121 H121       33.5058   34.3589    3.2232 H         1 UNK         0.0769 
    122 H122       31.6459   34.6806    1.5595 H         1 UNK         0.0811 
    123 H123       31.0952   34.9052    3.2124 H         1 UNK         0.0811 
    124 H124       30.7206   33.4130    2.3539 H         1 UNK         0.0811 
    125 H125       32.1996   31.0906    2.5132 H         1 UNK         0.3204 
    126 H126       34.5704   30.5707    0.8304 H         1 UNK         0.0748 
    127 H127       33.1203   29.5067   -0.9413 H         1 UNK         0.0771 
    128 H128       31.7081   30.2223   -0.1684 H         1 UNK         0.0771 
    129 H129       32.9530   31.2539   -0.8584 H         1 UNK         0.0771 
    130 H130       31.5341   29.0466    2.1752 H         1 UNK         0.2980 
    131 H131       32.9869   26.4984    2.2903 H         1 UNK         0.0545 
    132 H132       33.1359   25.1660    4.2216 H         1 UNK         0.3459 
    133 H133       33.3568   25.9576    5.7740 H         1 UNK         0.3459 
    134 H134       30.9676   25.3830    2.7497 H         1 UNK         0.0616 
    135 H135       30.6414   26.5055    1.4703 H         1 UNK         0.0616 
    136 H136       29.0136   26.4109    5.7216 H         1 UNK         0.0634 
    137 H137       30.2053   25.3617    5.0001 H         1 UNK         0.0634 
@<TRIPOS>BOND
     1    1    2 1    
     2    1   72 1    
     3    1   73 1    
     4    1   74 1    
     5    2    3 2    
     6    2    4 am   BACKBONE|DICT|INTERRES
     7    4    5 1    
     8    4   75 1    
     9    5    6 1    
    10    5   35 1    
    11    5   76 1    
    12    6    7 1    
    13    6   77 1    
    14    6   78 1    
    15    7    8 1    
    16    8    9 1    
    17    8   79 1    
    18    8   80 1    
    19    9   10 ar   
    20    9   14 ar   
    21   10   11 ar   
    22   10   81 1    
    23   11   12 ar   
    24   11   71 1    
    25   12   13 ar   
    26   12   82 1    
    27   13   14 ar   
    28   13   15 1    
    29   14   83 1    
    30   15   16 1    
    31   15   84 1    
    32   15   85 1    
    33   16   17 1    
    34   17   18 1    
    35   17   86 1    
    36   17   87 1    
    37   18   19 1    
    38   18   37 1    
    39   18   88 1    
    40   19   20 am   BACKBONE|DICT|INTERRES
    41   19   89 1    
    42   20   21 2    
    43   20   22 1    
    44   22   23 1    
    45   22   24 1    
    46   22   90 1    
    47   23   91 1    
    48   23   92 1    
    49   23   93 1    
    50   24   25 am   BACKBONE|DICT|INTERRES
    51   24   94 1    
    52   25   26 2    
    53   25   27 1    
    54   27   28 1    
    55   27   29 1    
    56   27   95 1    
    57   28   96 1    
    58   28   97 1    
    59   28   98 1    
    60   29   30 am   BACKBONE|DICT|INTERRES
    61   29   99 1    
    62   30   31 2    
    63   30   32 1    
    64   32   33 1    
    65   32   34 1    
    66   32  100 1    
    67   33  101 1    
    68   33  102 1    
    69   33  103 1    
    70   34   35 am   BACKBONE|DICT|INTERRES
    71   34  104 1    
    72   35   36 2    
    73   37   38 2    
    74   37   39 am   BACKBONE|DICT|INTERRES
    75   39   40 1    
    76   39  105 1    
    77   40   41 1    
    78   40   42 1    
    79   40  106 1    
    80   41  107 1    
    81   41  108 1    
    82   41  109 1    
    83   42   43 2    
    84   42   44 am   BACKBONE|DICT|INTERRES
    85   44   45 1    
    86   44  110 1    
    87   45   46 1    
    88   45   47 1    
    89   45  111 1    
    90   46  112 1    
    91   46  113 1    
    92   46  114 1    
    93   47   48 2    
    94   47   49 am   BACKBONE|DICT|INTERRES
    95   49   50 1    
    96   49  115 1    
    97   50   51 1    
    98   50   52 1    
    99   50  116 1    
   100   51  117 1    
   101   51  118 1    
   102   51  119 1    
   103   52   53 2    
   104   52   54 am   BACKBONE|DICT|INTERRES
   105   54   55 1    
   106   54  120 1    
   107   55   56 1    
   108   55   57 1    
   109   55  121 1    
   110   56  122 1    
   111   56  123 1    
   112   56  124 1    
   113   57   58 2    
   114   57   59 am   BACKBONE|DICT|INTERRES
   115   59   60 1    
   116   59  125 1    
   117   60   61 1    
   118   60   62 1    
   119   60  126 1    
   120   61  127 1    
   121   61  128 1    
   122   61  129 1    
   123   62   63 2    
   124   62   64 am   BACKBONE|DICT|INTERRES
   125   64   65 1    
   126   64  130 1    
   127   65   66 1    
   128   65   69 1    
   129   65  131 1    
   130   66   67 am   BACKBONE|DICT|INTERRES
   131   66   68 2    
   132   67  132 1    
   133   67  133 1    
   134   69   70 1    
   135   69  134 1    
   136   69  135 1    
   137   70   71 1    
   138   71  136 1    
   139   71  137 1    
@<TRIPOS>SUBSTRUCTURE
     1 UNK         1 GROUP             0       ****    0 ROOT    
