@<TRIPOS>MOLECULE
3R136
137   139    1
SMALL
USER_CHARGES


@<TRIPOS>ATOM
      1 CA         28.3438   22.6661    1.8648 C.3       0 UNK        -0.1979 
      2 C          29.0784   22.5290    0.5441 C.2       0 UNK         0.4864 
      3 O          28.5937   21.8514   -0.3640 O.2       0 UNK        -0.5359 
      4 N          30.2613   23.1460    0.4484 N.am      1 UNK        -0.4318 
      5 CA         31.1595   23.0180   -0.7007 C.3       1 UNK         0.0824 
      6 C6         32.6484   23.1787   -0.3091 C.3       12 UNK        -0.0944 
      7 S7         33.1326   22.0075    1.0072 S.3       12 UNK        -0.2672 
      8 C8         33.6350   23.1184    2.3598 C.3       12 UNK         0.0333 
      9 C9         32.4724   23.8941    2.9690 C.ar      12 UNK        -0.0807 
     10 C10        32.2445   25.2217    2.5903 C.ar      12 UNK        -0.0894 
     11 C11        31.2424   25.9687    3.2121 C.ar      12 UNK        -0.0804 
     12 C12        30.4998   25.3966    4.2434 C.ar      12 UNK        -0.0824 
     13 C13        30.6556   24.0535    4.5822 C.ar      12 UNK        -0.0762 
     14 C14        31.6539   23.3050    3.9436 C.ar      12 UNK        -0.0782 
     15 C15        29.7556   23.4322    5.6479 C.3       12 UNK         0.0230 
     16 S16        27.9820   23.4429    5.1797 S.3       12 UNK        -0.2608 
     17 C17        27.3529   25.0179    5.8638 C.3       12 UNK        -0.0989 
     18 CA         26.9742   26.0795    4.7936 C.3       5 UNK         0.0716 
     19 N          25.9032   25.6467    3.8879 N.am      5 UNK        -0.4135 
     20 C          25.4523   26.3672    2.8487 C.2       4 UNK         0.5031 
     21 O          25.7370   27.5501    2.6415 O.2       4 UNK        -0.5229 
     22 CA         24.5614   25.6373    1.8248 C.3       4 UNK         0.0329 
     23 CB         23.0787   25.9728    2.0516 C.3       4 UNK        -0.2001 
     24 N          24.9461   26.0135    0.4572 N.am      4 UNK        -0.4303 
     25 C          26.1551   25.7592   -0.0640 C.2       3 UNK         0.5044 
     26 O          26.9750   25.0151    0.4765 O.2       3 UNK        -0.5152 
     27 CA         26.5402   26.4675   -1.3732 C.3       3 UNK         0.0319 
     28 CB         26.1611   27.9653   -1.3566 C.3       3 UNK        -0.2001 
     29 N          27.9843   26.3038   -1.5282 N.am      3 UNK        -0.4354 
     30 C          28.7314   26.5635   -2.6050 C.2       2 UNK         0.4964 
     31 O          28.2774   26.9805   -3.6711 O.2       2 UNK        -0.5047 
     32 CA         30.2448   26.3180   -2.4774 C.3       2 UNK         0.0288 
     33 CB         30.9669   27.6128   -2.0717 C.3       2 UNK        -0.2113 
     34 N          30.5726   25.2660   -1.5078 N.am      2 UNK        -0.4145 
     35 C          30.7669   23.9802   -1.8368 C.2       1 UNK         0.5006 
     36 O          30.6569   23.5438   -2.9843 O.2       1 UNK        -0.5103 
     37 C          26.7044   27.4394    5.4715 C.2       5 UNK         0.5055 
     38 O          25.6026   27.6795    5.9715 O.2       5 UNK        -0.5220 
     39 N          27.7453   28.2752    5.4984 N.am      6 UNK        -0.4450 
     40 CA         27.8043   29.6061    6.0883 C.3       6 UNK         0.0367 
     41 CB         27.1327   30.6269    5.1488 C.3       6 UNK        -0.1929 
     42 C          29.2869   29.9229    6.3462 C.2       6 UNK         0.5070 
     43 O          30.1379   29.0559    6.1265 O.2       6 UNK        -0.5237 
     44 N          29.5743   31.1391    6.8262 N.am      7 UNK        -0.4739 
     45 CA         30.9292   31.6168    7.1212 C.3       7 UNK         0.0276 
     46 CB         30.8382   32.9772    7.8316 C.3       7 UNK        -0.1927 
     47 C          31.8087   31.7291    5.8615 C.2       7 UNK         0.5013 
     48 O          31.3150   32.1638    4.8178 O.2       7 UNK        -0.5193 
     49 N          33.0942   31.3745    6.0154 N.am      8 UNK        -0.4253 
     50 CA         34.1575   31.3055    4.9999 C.3       8 UNK         0.0242 
     51 CB         34.3626   32.6675    4.3035 C.3       8 UNK        -0.2000 
     52 C          33.9418   30.1833    3.9676 C.2       8 UNK         0.4948 
     53 O          32.8168   29.7376    3.7482 O.2       8 UNK        -0.5275 
     54 N          35.0314   29.7620    3.3092 N.am      9 UNK        -0.4246 
     55 CA         35.0414   28.6888    2.3019 C.3       9 UNK         0.0261 
     56 CB         36.4933   28.3840    1.8992 C.3       9 UNK        -0.1959 
     57 C          34.1842   28.9710    1.0515 C.2       9 UNK         0.5033 
     58 O          33.7840   28.0267    0.3706 O.2       9 UNK        -0.5390 
     59 N          33.9010   30.2533    0.7888 N.am      10 UNK        -0.4215 
     60 CA         32.9919   30.7212   -0.2573 C.3       10 UNK         0.0240 
     61 CB         33.3482   32.1783   -0.5997 C.3       10 UNK        -0.1982 
     62 C          31.4995   30.6055    0.1162 C.2       10 UNK         0.4970 
     63 O          30.6673   30.8106   -0.7674 O.2       10 UNK        -0.4916 
     64 N          31.1842   30.3053    1.3867 N.am      11 UNK        -0.4279 
     65 CA         29.8322   30.2327    1.9623 C.3       11 UNK         0.1003 
     66 C          29.1111   31.6096    1.8895 C.2       11 UNK         0.5709 
     67 N          29.5252   32.5733    2.7000 N.am      11 UNK        -0.7358 
     68 O          28.1787   31.8148    1.1152 O.2       11 UNK        -0.4999 
     69 C69        28.9648   29.0733    1.3832 C.3       12 UNK        -0.0954 
     70 S70        29.5421   27.3465    1.5806 S.3       12 UNK        -0.2268 
     71 C71        30.9254   27.3816    2.7606 C.3       12 UNK         0.0203 
     72 H72        28.5374   23.6411    2.3124 H         1 UNK         0.0888 
     73 H73        27.2678   22.5750    1.7191 H         1 UNK         0.0888 
     74 H74        28.6653   21.8918    2.5605 H         1 UNK         0.0888 
     75 H75        30.6225   23.6567    1.2427 H         1 UNK         0.3017 
     76 H76        31.0511   22.0062   -1.0992 H         1 UNK         0.0873 
     77 H77        32.8678   24.2013   -0.0012 H         1 UNK         0.0745 
     78 H78        33.2863   22.9852   -1.1737 H         1 UNK         0.0745 
     79 H79        34.1135   22.5214    3.1376 H         1 UNK         0.0705 
     80 H80        34.4029   23.8030    1.9955 H         1 UNK         0.0705 
     81 H81        32.8514   25.6815    1.8215 H         1 UNK         0.1334 
     82 H82        29.7819   25.9976    4.7726 H         1 UNK         0.1417 
     83 H83        31.8131   22.2711    4.2194 H         1 UNK         0.1562 
     84 H84        29.9019   23.9449    6.5993 H         1 UNK         0.0748 
     85 H85        30.0479   22.3953    5.8199 H         1 UNK         0.0748 
     86 H86        28.0999   25.4166    6.5529 H         1 UNK         0.0940 
     87 H87        26.4825   24.7895    6.4821 H         1 UNK         0.0940 
     88 H88        27.8197   26.2209    4.1227 H         1 UNK         0.0703 
     89 H89        25.6047   24.6880    3.9878 H         1 UNK         0.3081 
     90 H90        24.6996   24.5592    1.9331 H         1 UNK         0.0719 
     91 H91        22.4387   25.4451    1.3443 H         1 UNK         0.0809 
     92 H92        22.8868   27.0416    1.9477 H         1 UNK         0.0809 
     93 H93        22.7626   25.6815    3.0542 H         1 UNK         0.0809 
     94 H94        24.3365   26.6579   -0.0236 H         1 UNK         0.2990 
     95 H95        26.0363   25.9632   -2.1996 H         1 UNK         0.0690 
     96 H96        26.5287   28.4870   -2.2399 H         1 UNK         0.0788 
     97 H97        26.5686   28.4702   -0.4797 H         1 UNK         0.0788 
     98 H98        25.0798   28.1025   -1.3410 H         1 UNK         0.0788 
     99 H99        28.4180   25.9033   -0.7045 H         1 UNK         0.2993 
    100 H100       30.6107   26.0331   -3.4666 H         1 UNK         0.0949 
    101 H101       32.0478   27.4736   -2.0388 H         1 UNK         0.0767 
    102 H102       30.7637   28.4155   -2.7819 H         1 UNK         0.0767 
    103 H103       30.6476   27.9615   -1.0903 H         1 UNK         0.0767 
    104 H104       30.6723   25.5475   -0.5431 H         1 UNK         0.3013 
    105 H105       28.6477   27.9724    5.1524 H         1 UNK         0.3121 
    106 H106       27.2894   29.5952    7.0511 H         1 UNK         0.0774 
    107 H107       27.6248   30.6579    4.1782 H         1 UNK         0.0815 
    108 H108       27.1562   31.6348    5.5633 H         1 UNK         0.0815 
    109 H109       26.0853   30.3774    4.9778 H         1 UNK         0.0815 
    110 H110       28.8247   31.8025    6.9566 H         1 UNK         0.2987 
    111 H111       31.3880   30.8988    7.8048 H         1 UNK         0.0949 
    112 H112       30.3650   33.7300    7.1996 H         1 UNK         0.0806 
    113 H113       30.2668   32.9065    8.7574 H         1 UNK         0.0806 
    114 H114       31.8299   33.3495    8.0926 H         1 UNK         0.0806 
    115 H115       33.3666   31.0274    6.9244 H         1 UNK         0.3010 
    116 H116       35.0705   31.0666    5.5479 H         1 UNK         0.0829 
    117 H117       34.4824   33.4704    5.0309 H         1 UNK         0.0813 
    118 H118       35.2589   32.6610    3.6824 H         1 UNK         0.0813 
    119 H119       33.5250   32.9266    3.6551 H         1 UNK         0.0813 
    120 H120       35.9252   30.1776    3.5319 H         1 UNK         0.3038 
    121 H121       34.6247   27.7962    2.7740 H         1 UNK         0.0769 
    122 H122       36.5343   27.5703    1.1734 H         1 UNK         0.0811 
    123 H123       37.0888   28.0766    2.7591 H         1 UNK         0.0811 
    124 H124       36.9771   29.2497    1.4451 H         1 UNK         0.0811 
    125 H125       34.2859   30.9557    1.4028 H         1 UNK         0.3204 
    126 H126       33.1479   30.1122   -1.1506 H         1 UNK         0.0748 
    127 H127       32.7238   32.5537   -1.4117 H         1 UNK         0.0771 
    128 H128       33.2035   32.8410    0.2547 H         1 UNK         0.0771 
    129 H129       34.3849   32.2683   -0.9248 H         1 UNK         0.0771 
    130 H130       31.9285   30.1634    2.0626 H         1 UNK         0.2980 
    131 H131       29.9663   30.0386    3.0264 H         1 UNK         0.0545 
    132 H132       30.2589   32.4045    3.3886 H         1 UNK         0.3459 
    133 H133       29.0733   33.4722    2.6649 H         1 UNK         0.3459 
    134 H134       28.7942   29.2310    0.3175 H         1 UNK         0.0616 
    135 H135       27.9743   29.1060    1.8406 H         1 UNK         0.0616 
    136 H136       31.7969   27.8253    2.2844 H         1 UNK         0.0634 
    137 H137       30.6767   27.9939    3.6270 H         1 UNK         0.0634 
@<TRIPOS>BOND
     1    1    2 1    
     2    1   72 1    
     3    1   73 1    
     4    1   74 1    
     5    2    3 2    
     6    2    4 am   BACKBONE|DICT|INTERRES
     7    4    5 1    
     8    4   75 1    
     9    5    6 1    
    10    5   35 1    
    11    5   76 1    
    12    6    7 1    
    13    6   77 1    
    14    6   78 1    
    15    7    8 1    
    16    8    9 1    
    17    8   79 1    
    18    8   80 1    
    19    9   10 ar   
    20    9   14 ar   
    21   10   11 ar   
    22   10   81 1    
    23   11   12 ar   
    24   11   71 1    
    25   12   13 ar   
    26   12   82 1    
    27   13   14 ar   
    28   13   15 1    
    29   14   83 1    
    30   15   16 1    
    31   15   84 1    
    32   15   85 1    
    33   16   17 1    
    34   17   18 1    
    35   17   86 1    
    36   17   87 1    
    37   18   19 1    
    38   18   37 1    
    39   18   88 1    
    40   19   20 am   BACKBONE|DICT|INTERRES
    41   19   89 1    
    42   20   21 2    
    43   20   22 1    
    44   22   23 1    
    45   22   24 1    
    46   22   90 1    
    47   23   91 1    
    48   23   92 1    
    49   23   93 1    
    50   24   25 am   BACKBONE|DICT|INTERRES
    51   24   94 1    
    52   25   26 2    
    53   25   27 1    
    54   27   28 1    
    55   27   29 1    
    56   27   95 1    
    57   28   96 1    
    58   28   97 1    
    59   28   98 1    
    60   29   30 am   BACKBONE|DICT|INTERRES
    61   29   99 1    
    62   30   31 2    
    63   30   32 1    
    64   32   33 1    
    65   32   34 1    
    66   32  100 1    
    67   33  101 1    
    68   33  102 1    
    69   33  103 1    
    70   34   35 am   BACKBONE|DICT|INTERRES
    71   34  104 1    
    72   35   36 2    
    73   37   38 2    
    74   37   39 am   BACKBONE|DICT|INTERRES
    75   39   40 1    
    76   39  105 1    
    77   40   41 1    
    78   40   42 1    
    79   40  106 1    
    80   41  107 1    
    81   41  108 1    
    82   41  109 1    
    83   42   43 2    
    84   42   44 am   BACKBONE|DICT|INTERRES
    85   44   45 1    
    86   44  110 1    
    87   45   46 1    
    88   45   47 1    
    89   45  111 1    
    90   46  112 1    
    91   46  113 1    
    92   46  114 1    
    93   47   48 2    
    94   47   49 am   BACKBONE|DICT|INTERRES
    95   49   50 1    
    96   49  115 1    
    97   50   51 1    
    98   50   52 1    
    99   50  116 1    
   100   51  117 1    
   101   51  118 1    
   102   51  119 1    
   103   52   53 2    
   104   52   54 am   BACKBONE|DICT|INTERRES
   105   54   55 1    
   106   54  120 1    
   107   55   56 1    
   108   55   57 1    
   109   55  121 1    
   110   56  122 1    
   111   56  123 1    
   112   56  124 1    
   113   57   58 2    
   114   57   59 am   BACKBONE|DICT|INTERRES
   115   59   60 1    
   116   59  125 1    
   117   60   61 1    
   118   60   62 1    
   119   60  126 1    
   120   61  127 1    
   121   61  128 1    
   122   61  129 1    
   123   62   63 2    
   124   62   64 am   BACKBONE|DICT|INTERRES
   125   64   65 1    
   126   64  130 1    
   127   65   66 1    
   128   65   69 1    
   129   65  131 1    
   130   66   67 am   BACKBONE|DICT|INTERRES
   131   66   68 2    
   132   67  132 1    
   133   67  133 1    
   134   69   70 1    
   135   69  134 1    
   136   69  135 1    
   137   70   71 1    
   138   71  136 1    
   139   71  137 1    
@<TRIPOS>SUBSTRUCTURE
     1 UNK         1 GROUP             0       ****    0 ROOT    
