@<TRIPOS>MOLECULE
3R136
137   139    1
SMALL
USER_CHARGES


@<TRIPOS>ATOM
      1 CA         27.9566   18.1293   -0.4438 C.3       0 UNK        -0.1979 
      2 C          27.8534   19.6249   -0.1802 C.2       0 UNK         0.4864 
      3 O          27.5028   20.0175    0.9324 O.2       0 UNK        -0.5359 
      4 N          28.1685   20.4430   -1.1955 N.am      1 UNK        -0.4318 
      5 CA         28.1017   21.9088   -1.2186 C.3       1 UNK         0.0824 
      6 C6         28.9579   22.5933   -0.1174 C.3       12 UNK        -0.0944 
      7 S7         29.4076   24.3039   -0.5758 S.3       12 UNK        -0.2672 
      8 C8         31.2289   24.2399   -0.5606 C.3       12 UNK         0.0333 
      9 C9         31.8151   24.6098    0.7978 C.ar      12 UNK        -0.0807 
     10 C10        32.5905   25.7658    0.9322 C.ar      12 UNK        -0.0894 
     11 C11        33.1690   26.0983    2.1606 C.ar      12 UNK        -0.0804 
     12 C12        32.9497   25.2768    3.2708 C.ar      12 UNK        -0.0824 
     13 C13        32.1728   24.1198    3.1525 C.ar      12 UNK        -0.0762 
     14 C14        31.6189   23.7871    1.9120 C.ar      12 UNK        -0.0782 
     15 C15        31.9459   23.2148    4.3565 C.3       12 UNK         0.0230 
     16 S16        30.1968   23.1712    4.8664 S.3       12 UNK        -0.2608 
     17 C17        29.9522   24.8542    5.5308 C.3       12 UNK        -0.0989 
     18 CA         29.3836   25.8425    4.4791 C.3       5 UNK         0.0716 
     19 N          28.1450   25.3505    3.8575 N.am      5 UNK        -0.4135 
     20 C          27.6782   25.7291    2.6607 C.2       4 UNK         0.5031 
     21 O          28.2473   26.5712    1.9609 O.2       4 UNK        -0.5229 
     22 CA         26.3594   25.0764    2.2035 C.3       4 UNK         0.0329 
     23 CB         25.1920   25.4075    3.1582 C.3       4 UNK        -0.2001 
     24 N          26.0187   25.3980    0.8115 N.am      4 UNK        -0.4303 
     25 C          25.6783   26.5866    0.2839 C.2       3 UNK         0.5044 
     26 O          25.4483   27.6000    0.9458 O.2       3 UNK        -0.5152 
     27 CA         25.5920   26.6801   -1.2536 C.3       3 UNK         0.0319 
     28 CB         26.7753   27.4958   -1.8022 C.3       3 UNK        -0.2001 
     29 N          25.5767   25.3755   -1.9199 N.am      3 UNK        -0.4354 
     30 C          24.5063   24.5739   -2.0150 C.2       2 UNK         0.4964 
     31 O          23.3805   24.8850   -1.6255 O.2       2 UNK        -0.5047 
     32 CA         24.7355   23.1765   -2.6254 C.3       2 UNK         0.0288 
     33 CB         24.4141   23.1865   -4.1289 C.3       2 UNK        -0.2113 
     34 N          26.0934   22.6513   -2.4223 N.am      2 UNK        -0.4145 
     35 C          26.6386   22.3973   -1.2229 C.2       1 UNK         0.5006 
     36 O          26.0358   22.5621   -0.1610 O.2       1 UNK        -0.5103 
     37 C          29.2228   27.2765    5.0382 C.2       5 UNK         0.5055 
     38 O          29.5427   27.5353    6.1986 O.2       5 UNK        -0.5220 
     39 N          28.7240   28.1800    4.1920 N.am      6 UNK        -0.4450 
     40 CA         28.5207   29.6058    4.4322 C.3       6 UNK         0.0367 
     41 CB         27.2079   29.8282    5.2085 C.3       6 UNK        -0.1929 
     42 C          28.5570   30.3730    3.0973 C.2       6 UNK         0.5070 
     43 O          27.9757   31.4537    2.9978 O.2       6 UNK        -0.5237 
     44 N          29.2254   29.7993    2.0835 N.am      7 UNK        -0.4739 
     45 CA         29.3316   30.3377    0.7237 C.3       7 UNK         0.0276 
     46 CB         29.8874   29.2375   -0.1960 C.3       7 UNK        -0.1927 
     47 C          30.1917   31.6116    0.6229 C.2       7 UNK         0.5013 
     48 O          30.0583   32.3549   -0.3503 O.2       7 UNK        -0.5193 
     49 N          31.0485   31.8402    1.6219 N.am      8 UNK        -0.4253 
     50 CA         31.9103   33.0027    1.7819 C.3       8 UNK         0.0242 
     51 CB         33.2093   32.7966    0.9795 C.3       8 UNK        -0.2000 
     52 C          32.2062   33.1691    3.2760 C.2       8 UNK         0.4948 
     53 O          31.9724   32.2401    4.0564 O.2       8 UNK        -0.5275 
     54 N          32.7780   34.3231    3.6455 N.am      9 UNK        -0.4246 
     55 CA         33.2226   34.6365    5.0109 C.3       9 UNK         0.0261 
     56 CB         33.6942   36.0985    5.0706 C.3       9 UNK        -0.1959 
     57 C          34.3200   33.6930    5.5422 C.2       9 UNK         0.5033 
     58 O          34.4184   33.5045    6.7551 O.2       9 UNK        -0.5390 
     59 N          35.1022   33.1000    4.6287 N.am      10 UNK        -0.4215 
     60 CA         36.0728   32.0424    4.9152 C.3       10 UNK         0.0240 
     61 CB         37.0050   31.8730    3.7041 C.3       10 UNK        -0.1982 
     62 C          35.4140   30.6966    5.2741 C.2       10 UNK         0.4970 
     63 O          36.0266   29.9115    5.9988 O.2       10 UNK        -0.4916 
     64 N          34.2003   30.4477    4.7635 N.am      11 UNK        -0.4279 
     65 CA         33.3986   29.2562    5.0711 C.3       11 UNK         0.1003 
     66 C          32.6444   29.4246    6.4141 C.2       11 UNK         0.5709 
     67 N          31.9742   30.5528    6.6227 N.am      11 UNK        -0.7358 
     68 O          32.6853   28.5436    7.2688 O.2       11 UNK        -0.4999 
     69 C69        32.4081   28.8803    3.9347 C.3       12 UNK        -0.0954 
     70 S70        33.1400   28.8795    2.2662 S.3       12 UNK        -0.2268 
     71 C71        34.0719   27.3186    2.2681 C.3       12 UNK         0.0203 
     72 H72        26.9870   17.6548   -0.2947 H         1 UNK         0.0888 
     73 H73        28.2862   17.9138   -1.4601 H         1 UNK         0.0888 
     74 H74        28.6677   17.6753    0.2459 H         1 UNK         0.0888 
     75 H75        28.4410   20.0236   -2.0741 H         1 UNK         0.3017 
     76 H76        28.5400   22.1840   -2.1797 H         1 UNK         0.0873 
     77 H77        28.4516   22.6026    0.8498 H         1 UNK         0.0745 
     78 H78        29.8687   22.0146    0.0362 H         1 UNK         0.0745 
     79 H79        31.5912   24.9287   -1.3252 H         1 UNK         0.0705 
     80 H80        31.5816   23.2527   -0.8613 H         1 UNK         0.0705 
     81 H81        32.7617   26.4038    0.0757 H         1 UNK         0.1334 
     82 H82        33.3956   25.5313    4.2227 H         1 UNK         0.1417 
     83 H83        31.0265   22.8881    1.8232 H         1 UNK         0.1562 
     84 H84        32.5631   23.5205    5.2027 H         1 UNK         0.0748 
     85 H85        32.2609   22.2021    4.1009 H         1 UNK         0.0748 
     86 H86        30.9019   25.2200    5.9267 H         1 UNK         0.0940 
     87 H87        29.2788   24.7827    6.3870 H         1 UNK         0.0940 
     88 H88        30.1296   25.9256    3.6865 H         1 UNK         0.0703 
     89 H89        27.6320   24.6621    4.3882 H         1 UNK         0.3081 
     90 H90        26.5189   23.9972    2.2241 H         1 UNK         0.0719 
     91 H91        25.3573   24.9833    4.1489 H         1 UNK         0.0809 
     92 H92        24.2514   24.9986    2.7889 H         1 UNK         0.0809 
     93 H93        25.0619   26.4825    3.2871 H         1 UNK         0.0809 
     94 H94        26.1496   24.6245    0.1710 H         1 UNK         0.2990 
     95 H95        24.6690   27.2103   -1.4978 H         1 UNK         0.0690 
     96 H96        26.6945   27.6400   -2.8797 H         1 UNK         0.0788 
     97 H97        27.7286   27.0066   -1.5970 H         1 UNK         0.0788 
     98 H98        26.8138   28.4860   -1.3455 H         1 UNK         0.0788 
     99 H99        26.4595   25.0422   -2.2792 H         1 UNK         0.2993 
    100 H100       24.0410   22.4933   -2.1312 H         1 UNK         0.0949 
    101 H101       23.4005   23.5481   -4.3087 H         1 UNK         0.0767 
    102 H102       25.0942   23.8341   -4.6838 H         1 UNK         0.0767 
    103 H103       24.4783   22.1853   -4.5557 H         1 UNK         0.0767 
    104 H104       26.6403   22.4840   -3.2551 H         1 UNK         0.3013 
    105 H105       28.4609   27.8408    3.2663 H         1 UNK         0.3121 
    106 H106       29.3503   29.9831    5.0340 H         1 UNK         0.0774 
    107 H107       27.0569   30.8851    5.4316 H         1 UNK         0.0815 
    108 H108       26.3440   29.4857    4.6377 H         1 UNK         0.0815 
    109 H109       27.2131   29.2979    6.1608 H         1 UNK         0.0815 
    110 H110       29.6864   28.9150    2.2427 H         1 UNK         0.2987 
    111 H111       28.3255   30.5950    0.3850 H         1 UNK         0.0949 
    112 H112       29.2734   28.3374   -0.1547 H         1 UNK         0.0806 
    113 H113       29.9080   29.5697   -1.2347 H         1 UNK         0.0806 
    114 H114       30.9054   28.9580    0.0781 H         1 UNK         0.0806 
    115 H115       31.0605   31.2077    2.4118 H         1 UNK         0.3010 
    116 H116       31.3872   33.8943    1.4297 H         1 UNK         0.0829 
    117 H117       33.0006   32.6577   -0.0814 H         1 UNK         0.0813 
    118 H118       33.8717   33.6586    1.0638 H         1 UNK         0.0813 
    119 H119       33.7612   31.9211    1.3250 H         1 UNK         0.0813 
    120 H120       32.9348   35.0348    2.9455 H         1 UNK         0.3038 
    121 H121       32.3587   34.5282    5.6703 H         1 UNK         0.0769 
    122 H122       34.5435   36.2775    4.4100 H         1 UNK         0.0811 
    123 H123       34.0059   36.3666    6.0813 H         1 UNK         0.0811 
    124 H124       32.8965   36.7857    4.7881 H         1 UNK         0.0811 
    125 H125       34.9677   33.3446    3.6590 H         1 UNK         0.3204 
    126 H126       36.6749   32.3542    5.7714 H         1 UNK         0.0748 
    127 H127       37.7612   31.1109    3.8982 H         1 UNK         0.0771 
    128 H128       36.4575   31.5678    2.8111 H         1 UNK         0.0771 
    129 H129       37.5329   32.7992    3.4760 H         1 UNK         0.0771 
    130 H130       33.7202   31.1660    4.2380 H         1 UNK         0.2980 
    131 H131       34.0803   28.4121    5.1901 H         1 UNK         0.0545 
    132 H132       31.9413   31.2634    5.9015 H         1 UNK         0.3459 
    133 H133       31.4851   30.6862    7.4928 H         1 UNK         0.3459 
    134 H134       31.5740   29.5813    3.9109 H         1 UNK         0.0616 
    135 H135       31.9708   27.9001    4.1256 H         1 UNK         0.0616 
    136 H136       34.6973   27.2661    3.1601 H         1 UNK         0.0634 
    137 H137       34.7590   27.3276    1.4209 H         1 UNK         0.0634 
@<TRIPOS>BOND
     1    1    2 1    
     2    1   72 1    
     3    1   73 1    
     4    1   74 1    
     5    2    3 2    
     6    2    4 am   BACKBONE|DICT|INTERRES
     7    4    5 1    
     8    4   75 1    
     9    5    6 1    
    10    5   35 1    
    11    5   76 1    
    12    6    7 1    
    13    6   77 1    
    14    6   78 1    
    15    7    8 1    
    16    8    9 1    
    17    8   79 1    
    18    8   80 1    
    19    9   10 ar   
    20    9   14 ar   
    21   10   11 ar   
    22   10   81 1    
    23   11   12 ar   
    24   11   71 1    
    25   12   13 ar   
    26   12   82 1    
    27   13   14 ar   
    28   13   15 1    
    29   14   83 1    
    30   15   16 1    
    31   15   84 1    
    32   15   85 1    
    33   16   17 1    
    34   17   18 1    
    35   17   86 1    
    36   17   87 1    
    37   18   19 1    
    38   18   37 1    
    39   18   88 1    
    40   19   20 am   BACKBONE|DICT|INTERRES
    41   19   89 1    
    42   20   21 2    
    43   20   22 1    
    44   22   23 1    
    45   22   24 1    
    46   22   90 1    
    47   23   91 1    
    48   23   92 1    
    49   23   93 1    
    50   24   25 am   BACKBONE|DICT|INTERRES
    51   24   94 1    
    52   25   26 2    
    53   25   27 1    
    54   27   28 1    
    55   27   29 1    
    56   27   95 1    
    57   28   96 1    
    58   28   97 1    
    59   28   98 1    
    60   29   30 am   BACKBONE|DICT|INTERRES
    61   29   99 1    
    62   30   31 2    
    63   30   32 1    
    64   32   33 1    
    65   32   34 1    
    66   32  100 1    
    67   33  101 1    
    68   33  102 1    
    69   33  103 1    
    70   34   35 am   BACKBONE|DICT|INTERRES
    71   34  104 1    
    72   35   36 2    
    73   37   38 2    
    74   37   39 am   BACKBONE|DICT|INTERRES
    75   39   40 1    
    76   39  105 1    
    77   40   41 1    
    78   40   42 1    
    79   40  106 1    
    80   41  107 1    
    81   41  108 1    
    82   41  109 1    
    83   42   43 2    
    84   42   44 am   BACKBONE|DICT|INTERRES
    85   44   45 1    
    86   44  110 1    
    87   45   46 1    
    88   45   47 1    
    89   45  111 1    
    90   46  112 1    
    91   46  113 1    
    92   46  114 1    
    93   47   48 2    
    94   47   49 am   BACKBONE|DICT|INTERRES
    95   49   50 1    
    96   49  115 1    
    97   50   51 1    
    98   50   52 1    
    99   50  116 1    
   100   51  117 1    
   101   51  118 1    
   102   51  119 1    
   103   52   53 2    
   104   52   54 am   BACKBONE|DICT|INTERRES
   105   54   55 1    
   106   54  120 1    
   107   55   56 1    
   108   55   57 1    
   109   55  121 1    
   110   56  122 1    
   111   56  123 1    
   112   56  124 1    
   113   57   58 2    
   114   57   59 am   BACKBONE|DICT|INTERRES
   115   59   60 1    
   116   59  125 1    
   117   60   61 1    
   118   60   62 1    
   119   60  126 1    
   120   61  127 1    
   121   61  128 1    
   122   61  129 1    
   123   62   63 2    
   124   62   64 am   BACKBONE|DICT|INTERRES
   125   64   65 1    
   126   64  130 1    
   127   65   66 1    
   128   65   69 1    
   129   65  131 1    
   130   66   67 am   BACKBONE|DICT|INTERRES
   131   66   68 2    
   132   67  132 1    
   133   67  133 1    
   134   69   70 1    
   135   69  134 1    
   136   69  135 1    
   137   70   71 1    
   138   71  136 1    
   139   71  137 1    
@<TRIPOS>SUBSTRUCTURE
     1 UNK         1 GROUP             0       ****    0 ROOT    
