@<TRIPOS>MOLECULE
3R136
137   139    1
SMALL
USER_CHARGES


@<TRIPOS>ATOM
      1 CA         26.3821   25.3556    5.9237 C.3       0 UNK        -0.1979 
      2 C          27.0701   24.3291    5.0357 C.2       0 UNK         0.4864 
      3 O          27.9625   23.6176    5.4983 O.2       0 UNK        -0.5359 
      4 N          26.6576   24.2460    3.7676 N.am      1 UNK        -0.4318 
      5 CA         27.1638   23.3244    2.7538 C.3       1 UNK         0.0824 
      6 C6         28.5810   23.7188    2.2493 C.3       12 UNK        -0.0944 
      7 S7         29.4934   22.2935    1.5553 S.3       12 UNK        -0.2672 
      8 C8         31.0447   22.3075    2.5263 C.3       12 UNK         0.0333 
      9 C9         32.1150   23.2947    2.0483 C.ar      12 UNK        -0.0807 
     10 C10        33.4454   23.0812    2.4249 C.ar      12 UNK        -0.0894 
     11 C11        34.4591   23.9543    2.0147 C.ar      12 UNK        -0.0804 
     12 C12        34.1339   25.0703    1.2379 C.ar      12 UNK        -0.0824 
     13 C13        32.8084   25.3062    0.8630 C.ar      12 UNK        -0.0762 
     14 C14        31.8133   24.4093    1.2573 C.ar      12 UNK        -0.0782 
     15 C15        32.4457   26.5219    0.0221 C.3       12 UNK         0.0230 
     16 S16        32.2580   28.0190    1.0411 S.3       12 UNK        -0.2608 
     17 C17        30.7613   27.6642    2.0294 C.3       12 UNK        -0.0989 
     18 CA         29.6306   28.6892    1.7775 C.3       5 UNK         0.0716 
     19 N          29.1982   28.6813    0.3727 N.am      5 UNK        -0.4135 
     20 C          28.3548   29.5437   -0.2107 C.2       4 UNK         0.5031 
     21 O          27.8565   30.5079    0.3693 O.2       4 UNK        -0.5229 
     22 CA         27.9359   29.2480   -1.6624 C.3       4 UNK         0.0329 
     23 CB         28.7945   30.0715   -2.6352 C.3       4 UNK        -0.2001 
     24 N          27.9816   27.8300   -2.0511 N.am      4 UNK        -0.4303 
     25 C          27.3684   26.8171   -1.4201 C.2       3 UNK         0.5044 
     26 O          26.7185   26.9475   -0.3781 O.2       3 UNK        -0.5152 
     27 CA         27.5595   25.4224   -2.0317 C.3       3 UNK         0.0319 
     28 CB         29.0368   24.9824   -1.9498 C.3       3 UNK        -0.2001 
     29 N          26.7185   24.4758   -1.3054 N.am      3 UNK        -0.4354 
     30 C          26.4094   23.2288   -1.6793 C.2       2 UNK         0.4964 
     31 O          26.7463   22.7387   -2.7588 O.2       2 UNK        -0.5047 
     32 CA         25.6386   22.3785   -0.6487 C.3       2 UNK         0.0288 
     33 CB         25.4579   20.9150   -1.0955 C.3       2 UNK        -0.2113 
     34 N          26.3449   22.3990    0.6351 N.am      2 UNK        -0.4145 
     35 C          26.1369   23.2952    1.6060 C.2       1 UNK         0.5006 
     36 O          25.2146   24.1152    1.5840 O.2       1 UNK        -0.5103 
     37 C          28.4823   28.5005    2.8019 C.2       5 UNK         0.5055 
     38 O          28.7260   28.6330    4.0011 O.2       5 UNK        -0.5220 
     39 N          27.2544   28.2124    2.3431 N.am      6 UNK        -0.4450 
     40 CA         26.0349   28.3208    3.1461 C.3       6 UNK         0.0367 
     41 CB         24.8715   27.6675    2.3859 C.3       6 UNK        -0.1929 
     42 C          25.6767   29.7780    3.5054 C.2       6 UNK         0.5070 
     43 O          25.0458   29.9960    4.5402 O.2       6 UNK        -0.5237 
     44 N          26.0656   30.7372    2.6525 N.am      7 UNK        -0.4739 
     45 CA         25.8246   32.1721    2.8289 C.3       7 UNK         0.0276 
     46 CB         25.0240   32.7000    1.6267 C.3       7 UNK        -0.1927 
     47 C          27.1387   32.9537    2.9833 C.2       7 UNK         0.5013 
     48 O          27.2052   33.8599    3.8154 O.2       7 UNK        -0.5193 
     49 N          28.1544   32.6005    2.1845 N.am      8 UNK        -0.4253 
     50 CA         29.5083   33.1553    2.2406 C.3       8 UNK         0.0242 
     51 CB         30.2015   32.8847    0.8922 C.3       8 UNK        -0.2000 
     52 C          30.3200   32.5549    3.4028 C.2       8 UNK         0.4948 
     53 O          29.8690   31.6121    4.0559 O.2       8 UNK        -0.5275 
     54 N          31.5236   33.0967    3.6305 N.am      9 UNK        -0.4246 
     55 CA         32.4931   32.5582    4.5876 C.3       9 UNK         0.0261 
     56 CB         33.6467   33.5589    4.7678 C.3       9 UNK        -0.1959 
     57 C          33.0240   31.1903    4.1221 C.2       9 UNK         0.5033 
     58 O          33.4375   31.0648    2.9666 O.2       9 UNK        -0.5390 
     59 N          33.0030   30.2043    5.0267 N.am      10 UNK        -0.4215 
     60 CA         33.4803   28.8414    4.7854 C.3       10 UNK         0.0240 
     61 CB         32.8858   27.9084    5.8546 C.3       10 UNK        -0.1982 
     62 C          35.0152   28.7501    4.7648 C.2       10 UNK         0.4970 
     63 O          35.6999   29.6679    5.2255 O.2       10 UNK        -0.4916 
     64 N          35.5185   27.6264    4.2412 N.am      11 UNK        -0.4279 
     65 CA         36.9461   27.2863    4.1783 C.3       11 UNK         0.1003 
     66 C          37.6403   27.1753    5.5684 C.2       11 UNK         0.5709 
     67 N          38.9524   27.3649    5.6191 N.am      11 UNK        -0.7358 
     68 O          37.0141   26.8926    6.5890 O.2       11 UNK        -0.4999 
     69 C69        37.1827   26.0283    3.3003 C.3       12 UNK        -0.0954 
     70 S70        36.3863   24.5075    3.9311 S.3       12 UNK        -0.2268 
     71 C71        35.9052   23.6674    2.3914 C.3       12 UNK         0.0203 
     72 H72        26.0827   24.8980    6.8663 H         1 UNK         0.0888 
     73 H73        27.0641   26.1769    6.1434 H         1 UNK         0.0888 
     74 H74        25.4901   25.7680    5.4522 H         1 UNK         0.0888 
     75 H75        25.8832   24.8074    3.4325 H         1 UNK         0.3017 
     76 H76        27.1912   22.3283    3.2014 H         1 UNK         0.0873 
     77 H77        29.1725   24.1327    3.0671 H         1 UNK         0.0745 
     78 H78        28.5255   24.5153    1.5045 H         1 UNK         0.0745 
     79 H79        31.4572   21.2981    2.4874 H         1 UNK         0.0705 
     80 H80        30.8176   22.5020    3.5755 H         1 UNK         0.0705 
     81 H81        33.6968   22.2228    3.0335 H         1 UNK         0.1334 
     82 H82        34.9094   25.7537    0.9209 H         1 UNK         0.1417 
     83 H83        30.7997   24.5933    0.9432 H         1 UNK         0.1562 
     84 H84        31.5295   26.3462   -0.5427 H         1 UNK         0.0748 
     85 H85        33.2273   26.6983   -0.7184 H         1 UNK         0.0748 
     86 H86        31.0584   27.6703    3.0796 H         1 UNK         0.0940 
     87 H87        30.3970   26.6576    1.8324 H         1 UNK         0.0940 
     88 H88        30.0365   29.6833    1.9749 H         1 UNK         0.0703 
     89 H89        29.5617   27.9310   -0.1935 H         1 UNK         0.3081 
     90 H90        26.8986   29.5735   -1.7638 H         1 UNK         0.0719 
     91 H91        28.4383   29.9745   -3.6609 H         1 UNK         0.0809 
     92 H92        28.7613   31.1328   -2.3835 H         1 UNK         0.0809 
     93 H93        29.8409   29.7641   -2.6108 H         1 UNK         0.0809 
     94 H94        28.4943   27.6210   -2.8962 H         1 UNK         0.2990 
     95 H95        27.2373   25.4579   -3.0743 H         1 UNK         0.0690 
     96 H96        29.6945   25.6746   -2.4761 H         1 UNK         0.0788 
     97 H97        29.1879   24.0021   -2.4019 H         1 UNK         0.0788 
     98 H98        29.3778   24.9234   -0.9167 H         1 UNK         0.0788 
     99 H99        26.3462   24.8442   -0.4361 H         1 UNK         0.2993 
    100 H100       24.6455   22.8203   -0.5399 H         1 UNK         0.0949 
    101 H101       26.4165   20.4168   -1.2469 H         1 UNK         0.0767 
    102 H102       24.8961   20.3429   -0.3568 H         1 UNK         0.0767 
    103 H103       24.9065   20.8579   -2.0350 H         1 UNK         0.0767 
    104 H104       27.1650   21.8101    0.7036 H         1 UNK         0.3013 
    105 H105       27.1281   28.0240    1.3538 H         1 UNK         0.3121 
    106 H106       26.1898   27.7759    4.0790 H         1 UNK         0.0774 
    107 H107       24.6615   28.1847    1.4486 H         1 UNK         0.0815 
    108 H108       23.9572   27.6817    2.9805 H         1 UNK         0.0815 
    109 H109       25.0881   26.6284    2.1467 H         1 UNK         0.0815 
    110 H110       26.6081   30.4714    1.8361 H         1 UNK         0.2987 
    111 H111       25.2358   32.3517    3.7312 H         1 UNK         0.0949 
    112 H112       25.5541   32.5426    0.6863 H         1 UNK         0.0806 
    113 H113       24.0552   32.2062    1.5508 H         1 UNK         0.0806 
    114 H114       24.8357   33.7703    1.7219 H         1 UNK         0.0806 
    115 H115       28.0161   31.8359    1.5267 H         1 UNK         0.3010 
    116 H116       29.4384   34.2346    2.3923 H         1 UNK         0.0829 
    117 H117       29.6078   33.2593    0.0580 H         1 UNK         0.0813 
    118 H118       31.1740   33.3750    0.8387 H         1 UNK         0.0813 
    119 H119       30.3677   31.8190    0.7302 H         1 UNK         0.0813 
    120 H120       31.8449   33.8457    3.0346 H         1 UNK         0.3038 
    121 H121       31.9889   32.4400    5.5495 H         1 UNK         0.0769 
    122 H122       34.1784   33.7351    3.8317 H         1 UNK         0.0811 
    123 H123       34.3751   33.1862    5.4893 H         1 UNK         0.0811 
    124 H124       33.2870   34.5194    5.1373 H         1 UNK         0.0811 
    125 H125       32.6765   30.4075    5.9600 H         1 UNK         0.3204 
    126 H126       33.1192   28.5241    3.8070 H         1 UNK         0.0748 
    127 H127       33.2272   28.1736    6.8562 H         1 UNK         0.0771 
    128 H128       31.7959   27.9445    5.8492 H         1 UNK         0.0771 
    129 H129       33.1716   26.8705    5.6782 H         1 UNK         0.0771 
    130 H130       34.8877   26.9048    3.9256 H         1 UNK         0.2980 
    131 H131       37.4245   28.1244    3.6675 H         1 UNK         0.0545 
    132 H132       39.4236   27.2861    6.5067 H         1 UNK         0.3459 
    133 H133       39.4810   27.5866    4.7897 H         1 UNK         0.3459 
    134 H134       36.8224   26.2292    2.2909 H         1 UNK         0.0616 
    135 H135       38.2511   25.8330    3.1934 H         1 UNK         0.0616 
    136 H136       36.0431   22.5939    2.5293 H         1 UNK         0.0634 
    137 H137       36.5761   23.9507    1.5789 H         1 UNK         0.0634 
@<TRIPOS>BOND
     1    1    2 1    
     2    1   72 1    
     3    1   73 1    
     4    1   74 1    
     5    2    3 2    
     6    2    4 am   BACKBONE|DICT|INTERRES
     7    4    5 1    
     8    4   75 1    
     9    5    6 1    
    10    5   35 1    
    11    5   76 1    
    12    6    7 1    
    13    6   77 1    
    14    6   78 1    
    15    7    8 1    
    16    8    9 1    
    17    8   79 1    
    18    8   80 1    
    19    9   10 ar   
    20    9   14 ar   
    21   10   11 ar   
    22   10   81 1    
    23   11   12 ar   
    24   11   71 1    
    25   12   13 ar   
    26   12   82 1    
    27   13   14 ar   
    28   13   15 1    
    29   14   83 1    
    30   15   16 1    
    31   15   84 1    
    32   15   85 1    
    33   16   17 1    
    34   17   18 1    
    35   17   86 1    
    36   17   87 1    
    37   18   19 1    
    38   18   37 1    
    39   18   88 1    
    40   19   20 am   BACKBONE|DICT|INTERRES
    41   19   89 1    
    42   20   21 2    
    43   20   22 1    
    44   22   23 1    
    45   22   24 1    
    46   22   90 1    
    47   23   91 1    
    48   23   92 1    
    49   23   93 1    
    50   24   25 am   BACKBONE|DICT|INTERRES
    51   24   94 1    
    52   25   26 2    
    53   25   27 1    
    54   27   28 1    
    55   27   29 1    
    56   27   95 1    
    57   28   96 1    
    58   28   97 1    
    59   28   98 1    
    60   29   30 am   BACKBONE|DICT|INTERRES
    61   29   99 1    
    62   30   31 2    
    63   30   32 1    
    64   32   33 1    
    65   32   34 1    
    66   32  100 1    
    67   33  101 1    
    68   33  102 1    
    69   33  103 1    
    70   34   35 am   BACKBONE|DICT|INTERRES
    71   34  104 1    
    72   35   36 2    
    73   37   38 2    
    74   37   39 am   BACKBONE|DICT|INTERRES
    75   39   40 1    
    76   39  105 1    
    77   40   41 1    
    78   40   42 1    
    79   40  106 1    
    80   41  107 1    
    81   41  108 1    
    82   41  109 1    
    83   42   43 2    
    84   42   44 am   BACKBONE|DICT|INTERRES
    85   44   45 1    
    86   44  110 1    
    87   45   46 1    
    88   45   47 1    
    89   45  111 1    
    90   46  112 1    
    91   46  113 1    
    92   46  114 1    
    93   47   48 2    
    94   47   49 am   BACKBONE|DICT|INTERRES
    95   49   50 1    
    96   49  115 1    
    97   50   51 1    
    98   50   52 1    
    99   50  116 1    
   100   51  117 1    
   101   51  118 1    
   102   51  119 1    
   103   52   53 2    
   104   52   54 am   BACKBONE|DICT|INTERRES
   105   54   55 1    
   106   54  120 1    
   107   55   56 1    
   108   55   57 1    
   109   55  121 1    
   110   56  122 1    
   111   56  123 1    
   112   56  124 1    
   113   57   58 2    
   114   57   59 am   BACKBONE|DICT|INTERRES
   115   59   60 1    
   116   59  125 1    
   117   60   61 1    
   118   60   62 1    
   119   60  126 1    
   120   61  127 1    
   121   61  128 1    
   122   61  129 1    
   123   62   63 2    
   124   62   64 am   BACKBONE|DICT|INTERRES
   125   64   65 1    
   126   64  130 1    
   127   65   66 1    
   128   65   69 1    
   129   65  131 1    
   130   66   67 am   BACKBONE|DICT|INTERRES
   131   66   68 2    
   132   67  132 1    
   133   67  133 1    
   134   69   70 1    
   135   69  134 1    
   136   69  135 1    
   137   70   71 1    
   138   71  136 1    
   139   71  137 1    
@<TRIPOS>SUBSTRUCTURE
     1 UNK         1 GROUP             0       ****    0 ROOT    
