@<TRIPOS>MOLECULE
3R136
137   139    1
SMALL
USER_CHARGES


@<TRIPOS>ATOM
      1 CA         29.6804   24.4400   -6.3299 C.3       0 UNK        -0.1979 
      2 C          29.7554   24.3166   -4.8154 C.2       0 UNK         0.4864 
      3 O          29.9694   23.2156   -4.3044 O.2       0 UNK        -0.5359 
      4 N          29.5754   25.4360   -4.0985 N.am      1 UNK        -0.4318 
      5 CA         29.5827   25.5742   -2.6356 C.3       1 UNK         0.0824 
      6 C6         30.9246   25.1413   -1.9841 C.3       12 UNK        -0.0944 
      7 S7         31.0820   25.6149   -0.2285 S.3       12 UNK        -0.2672 
      8 C8         31.2364   23.9701    0.5285 C.3       12 UNK         0.0333 
      9 C9         31.3740   24.0560    2.0392 C.ar      12 UNK        -0.0807 
     10 C10        32.6044   24.3799    2.6186 C.ar      12 UNK        -0.0894 
     11 C11        32.7444   24.4185    4.0094 C.ar      12 UNK        -0.0804 
     12 C12        31.6423   24.1347    4.8212 C.ar      12 UNK        -0.0824 
     13 C13        30.4060   23.8183    4.2522 C.ar      12 UNK        -0.0762 
     14 C14        30.2786   23.7791    2.8607 C.ar      12 UNK        -0.0782 
     15 C15        29.2151   23.4882    5.1387 C.3       12 UNK         0.0230 
     16 S16        27.8253   24.6306    4.8753 S.3       12 UNK        -0.2608 
     17 C17        28.4853   26.2088    5.5182 C.3       12 UNK        -0.0989 
     18 CA         28.8342   27.2609    4.4245 C.3       5 UNK         0.0716 
     19 N          27.7606   27.3633    3.4188 N.am      5 UNK        -0.4135 
     20 C          27.7588   27.9948    2.2367 C.2       4 UNK         0.5031 
     21 O          28.6542   28.7586    1.8650 O.2       4 UNK        -0.5229 
     22 CA         26.5264   27.7598    1.3380 C.3       4 UNK         0.0329 
     23 CB         26.6486   28.4588   -0.0274 C.3       4 UNK        -0.2001 
     24 N          26.2538   26.3320    1.1246 N.am      4 UNK        -0.4303 
     25 C          25.6054   25.5437    1.9960 C.2       3 UNK         0.5044 
     26 O          25.1835   25.9631    3.0751 O.2       3 UNK        -0.5152 
     27 CA         25.3847   24.0598    1.6427 C.3       3 UNK         0.0319 
     28 CB         23.9067   23.6672    1.8194 C.3       3 UNK        -0.2001 
     29 N          25.7907   23.7298    0.2757 N.am      3 UNK        -0.4354 
     30 C          26.8676   23.0109   -0.0665 C.2       2 UNK         0.4964 
     31 O          27.6654   22.5347    0.7407 O.2       2 UNK        -0.5047 
     32 CA         27.1067   22.7829   -1.5731 C.3       2 UNK         0.0288 
     33 CB         25.8441   22.9748   -2.4450 C.3       2 UNK        -0.2113 
     34 N          28.2061   23.6056   -2.0883 N.am      2 UNK        -0.4145 
     35 C          28.3370   24.9358   -1.9867 C.2       1 UNK         0.5006 
     36 O          27.5089   25.6628   -1.4367 O.2       1 UNK        -0.5103 
     37 C          29.2585   28.5990    5.0895 C.2       5 UNK         0.5055 
     38 O          29.8069   28.5805    6.1938 O.2       5 UNK        -0.5220 
     39 N          28.9945   29.7341    4.4397 N.am      6 UNK        -0.4450 
     40 CA         29.3627   31.0757    4.8814 C.3       6 UNK         0.0367 
     41 CB         28.3346   31.6198    5.8890 C.3       6 UNK        -0.1929 
     42 C          29.5119   32.0094    3.6756 C.2       6 UNK         0.5070 
     43 O          30.4527   32.8019    3.6366 O.2       6 UNK        -0.5237 
     44 N          28.5802   31.9084    2.7157 N.am      7 UNK        -0.4739 
     45 CA         28.5521   32.7443    1.5147 C.3       7 UNK         0.0276 
     46 CB         27.1289   32.7670    0.9344 C.3       7 UNK        -0.1927 
     47 C          29.5721   32.3128    0.4487 C.2       7 UNK         0.5013 
     48 O          30.1798   33.1839   -0.1753 O.2       7 UNK        -0.5193 
     49 N          29.7398   30.9973    0.2443 N.am      8 UNK        -0.4253 
     50 CA         30.6822   30.4512   -0.7389 C.3       8 UNK         0.0242 
     51 CB         30.1832   29.0904   -1.2416 C.3       8 UNK        -0.2000 
     52 C          32.1059   30.3355   -0.1759 C.2       8 UNK         0.4948 
     53 O          33.0675   30.5806   -0.9057 O.2       8 UNK        -0.5275 
     54 N          32.2142   29.9863    1.1087 N.am      9 UNK        -0.4246 
     55 CA         33.4503   29.9282    1.8772 C.3       9 UNK         0.0261 
     56 CB         34.0992   28.5405    1.7303 C.3       9 UNK        -0.1959 
     57 C          33.0678   30.2109    3.3287 C.2       9 UNK         0.5033 
     58 O          32.0631   29.6680    3.7898 O.2       9 UNK        -0.5390 
     59 N          33.8553   31.0373    4.0278 N.am      10 UNK        -0.4215 
     60 CA         33.5956   31.5023    5.3973 C.3       10 UNK         0.0240 
     61 CB         34.3780   32.8084    5.6339 C.3       10 UNK        -0.1982 
     62 C          33.8879   30.4311    6.4703 C.2       10 UNK         0.4970 
     63 O          34.6396   30.6900    7.4124 O.2       10 UNK        -0.4916 
     64 N          33.3154   29.2387    6.2902 N.am      11 UNK        -0.4279 
     65 CA         33.5102   28.0652    7.1484 C.3       11 UNK         0.1003 
     66 C          32.7339   28.1536    8.4884 C.2       11 UNK         0.5709 
     67 N          31.4882   28.6103    8.4912 N.am      11 UNK        -0.7358 
     68 O          33.2724   27.8126    9.5390 O.2       11 UNK        -0.4999 
     69 C69        33.1837   26.7570    6.3892 C.3       12 UNK        -0.0954 
     70 S70        34.2704   26.5282    4.9409 S.3       12 UNK        -0.2268 
     71 C71        34.0916   24.7466    4.6338 C.3       12 UNK         0.0203 
     72 H72        28.8786   23.8121   -6.7175 H         1 UNK         0.0888 
     73 H73        29.4925   25.4653   -6.6480 H         1 UNK         0.0888 
     74 H74        30.6176   24.1123   -6.7790 H         1 UNK         0.0888 
     75 H75        29.3779   26.2935   -4.5963 H         1 UNK         0.3017 
     76 H76        29.4829   26.6461   -2.4646 H         1 UNK         0.0873 
     77 H77        31.0832   24.0676   -2.0924 H         1 UNK         0.0745 
     78 H78        31.7521   25.6130   -2.5160 H         1 UNK         0.0745 
     79 H79        32.1070   23.4605    0.1127 H         1 UNK         0.0705 
     80 H80        30.3671   23.3676    0.2595 H         1 UNK         0.0705 
     81 H81        33.4541   24.5966    1.9854 H         1 UNK         0.1334 
     82 H82        31.7504   24.1568    5.8968 H         1 UNK         0.1417 
     83 H83        29.3235   23.5278    2.4205 H         1 UNK         0.1562 
     84 H84        29.4915   23.4953    6.1943 H         1 UNK         0.0748 
     85 H85        28.8813   22.4738    4.9161 H         1 UNK         0.0748 
     86 H86        29.3613   25.9996    6.1355 H         1 UNK         0.0940 
     87 H87        27.7337   26.6125    6.1996 H         1 UNK         0.0940 
     88 H88        29.7177   26.9023    3.8919 H         1 UNK         0.0703 
     89 H89        26.9466   26.7896    3.6162 H         1 UNK         0.3081 
     90 H90        25.6726   28.2073    1.8513 H         1 UNK         0.0719 
     91 H91        27.5086   28.0942   -0.5865 H         1 UNK         0.0809 
     92 H92        25.7604   28.2978   -0.6383 H         1 UNK         0.0809 
     93 H93        26.7710   29.5346    0.0884 H         1 UNK         0.0809 
     94 H94        26.6245   25.9309    0.2663 H         1 UNK         0.2990 
     95 H95        25.9727   23.4816    2.3586 H         1 UNK         0.0690 
     96 H96        23.7499   22.6099    1.6046 H         1 UNK         0.0788 
     97 H97        23.2544   24.2438    1.1624 H         1 UNK         0.0788 
     98 H98        23.5729   23.8384    2.8438 H         1 UNK         0.0788 
     99 H99        25.2206   24.1097   -0.4670 H         1 UNK         0.2993 
    100 H100       27.4218   21.7432   -1.6752 H         1 UNK         0.0949 
    101 H101       25.5068   24.0116   -2.4692 H         1 UNK         0.0767 
    102 H102       26.0363   22.6725   -3.4746 H         1 UNK         0.0767 
    103 H103       25.0172   22.3620   -2.0831 H         1 UNK         0.0767 
    104 H104       28.9207   23.1198   -2.6231 H         1 UNK         0.3013 
    105 H105       28.7132   29.6307    3.4688 H         1 UNK         0.3121 
    106 H106       30.3342   31.0246    5.3751 H         1 UNK         0.0774 
    107 H107       28.5935   32.6323    6.2012 H         1 UNK         0.0815 
    108 H108       27.3308   31.6531    5.4646 H         1 UNK         0.0815 
    109 H109       28.2978   31.0042    6.7879 H         1 UNK         0.0815 
    110 H110       27.8134   31.2646    2.8384 H         1 UNK         0.2987 
    111 H111       28.8041   33.7672    1.8054 H         1 UNK         0.0949 
    112 H112       27.0821   33.3928    0.0420 H         1 UNK         0.0806 
    113 H113       26.7868   31.7724    0.6518 H         1 UNK         0.0806 
    114 H114       26.4159   33.1756    1.6508 H         1 UNK         0.0806 
    115 H115       29.2295   30.3281    0.8137 H         1 UNK         0.3010 
    116 H116       30.7275   31.1198   -1.6017 H         1 UNK         0.0829 
    117 H117       29.2429   29.1933   -1.7823 H         1 UNK         0.0813 
    118 H118       30.9030   28.6394   -1.9260 H         1 UNK         0.0813 
    119 H119       30.0291   28.3894   -0.4213 H         1 UNK         0.0813 
    120 H120       31.3785   29.8132    1.6545 H         1 UNK         0.3038 
    121 H121       34.1397   30.6994    1.5268 H         1 UNK         0.0769 
    122 H122       34.3685   28.3354    0.6943 H         1 UNK         0.0811 
    123 H123       33.4284   27.7468    2.0638 H         1 UNK         0.0811 
    124 H124       35.0103   28.4692    2.3256 H         1 UNK         0.0811 
    125 H125       34.6866   31.4022    3.5851 H         1 UNK         0.3204 
    126 H126       32.5350   31.7447    5.4784 H         1 UNK         0.0748 
    127 H127       34.1654   33.2195    6.6218 H         1 UNK         0.0771 
    128 H128       35.4555   32.6518    5.5695 H         1 UNK         0.0771 
    129 H129       34.1040   33.5717    4.9051 H         1 UNK         0.0771 
    130 H130       32.7093   29.1197    5.4825 H         1 UNK         0.2980 
    131 H131       34.5698   28.0266    7.4102 H         1 UNK         0.0545 
    132 H132       30.9972   28.7849    7.6171 H         1 UNK         0.3459 
    133 H133       30.9899   28.6737    9.3636 H         1 UNK         0.3459 
    134 H134       32.1452   26.7575    6.0525 H         1 UNK         0.0616 
    135 H135       33.3015   25.8963    7.0500 H         1 UNK         0.0616 
    136 H136       34.2290   24.1937    5.5642 H         1 UNK         0.0634 
    137 H137       34.8953   24.4258    3.9694 H         1 UNK         0.0634 
@<TRIPOS>BOND
     1    1    2 1    
     2    1   72 1    
     3    1   73 1    
     4    1   74 1    
     5    2    3 2    
     6    2    4 am   BACKBONE|DICT|INTERRES
     7    4    5 1    
     8    4   75 1    
     9    5    6 1    
    10    5   35 1    
    11    5   76 1    
    12    6    7 1    
    13    6   77 1    
    14    6   78 1    
    15    7    8 1    
    16    8    9 1    
    17    8   79 1    
    18    8   80 1    
    19    9   10 ar   
    20    9   14 ar   
    21   10   11 ar   
    22   10   81 1    
    23   11   12 ar   
    24   11   71 1    
    25   12   13 ar   
    26   12   82 1    
    27   13   14 ar   
    28   13   15 1    
    29   14   83 1    
    30   15   16 1    
    31   15   84 1    
    32   15   85 1    
    33   16   17 1    
    34   17   18 1    
    35   17   86 1    
    36   17   87 1    
    37   18   19 1    
    38   18   37 1    
    39   18   88 1    
    40   19   20 am   BACKBONE|DICT|INTERRES
    41   19   89 1    
    42   20   21 2    
    43   20   22 1    
    44   22   23 1    
    45   22   24 1    
    46   22   90 1    
    47   23   91 1    
    48   23   92 1    
    49   23   93 1    
    50   24   25 am   BACKBONE|DICT|INTERRES
    51   24   94 1    
    52   25   26 2    
    53   25   27 1    
    54   27   28 1    
    55   27   29 1    
    56   27   95 1    
    57   28   96 1    
    58   28   97 1    
    59   28   98 1    
    60   29   30 am   BACKBONE|DICT|INTERRES
    61   29   99 1    
    62   30   31 2    
    63   30   32 1    
    64   32   33 1    
    65   32   34 1    
    66   32  100 1    
    67   33  101 1    
    68   33  102 1    
    69   33  103 1    
    70   34   35 am   BACKBONE|DICT|INTERRES
    71   34  104 1    
    72   35   36 2    
    73   37   38 2    
    74   37   39 am   BACKBONE|DICT|INTERRES
    75   39   40 1    
    76   39  105 1    
    77   40   41 1    
    78   40   42 1    
    79   40  106 1    
    80   41  107 1    
    81   41  108 1    
    82   41  109 1    
    83   42   43 2    
    84   42   44 am   BACKBONE|DICT|INTERRES
    85   44   45 1    
    86   44  110 1    
    87   45   46 1    
    88   45   47 1    
    89   45  111 1    
    90   46  112 1    
    91   46  113 1    
    92   46  114 1    
    93   47   48 2    
    94   47   49 am   BACKBONE|DICT|INTERRES
    95   49   50 1    
    96   49  115 1    
    97   50   51 1    
    98   50   52 1    
    99   50  116 1    
   100   51  117 1    
   101   51  118 1    
   102   51  119 1    
   103   52   53 2    
   104   52   54 am   BACKBONE|DICT|INTERRES
   105   54   55 1    
   106   54  120 1    
   107   55   56 1    
   108   55   57 1    
   109   55  121 1    
   110   56  122 1    
   111   56  123 1    
   112   56  124 1    
   113   57   58 2    
   114   57   59 am   BACKBONE|DICT|INTERRES
   115   59   60 1    
   116   59  125 1    
   117   60   61 1    
   118   60   62 1    
   119   60  126 1    
   120   61  127 1    
   121   61  128 1    
   122   61  129 1    
   123   62   63 2    
   124   62   64 am   BACKBONE|DICT|INTERRES
   125   64   65 1    
   126   64  130 1    
   127   65   66 1    
   128   65   69 1    
   129   65  131 1    
   130   66   67 am   BACKBONE|DICT|INTERRES
   131   66   68 2    
   132   67  132 1    
   133   67  133 1    
   134   69   70 1    
   135   69  134 1    
   136   69  135 1    
   137   70   71 1    
   138   71  136 1    
   139   71  137 1    
@<TRIPOS>SUBSTRUCTURE
     1 UNK         1 GROUP             0       ****    0 ROOT    
