@<TRIPOS>MOLECULE
3R136
137   139    1
SMALL
USER_CHARGES


@<TRIPOS>ATOM
      1 CA         35.4856   22.6391   -0.5952 C.3       0 UNK        -0.1979 
      2 C          34.4129   23.7059   -0.4319 C.2       0 UNK         0.4864 
      3 O          34.7396   24.8834   -0.2779 O.2       0 UNK        -0.5359 
      4 N          33.1385   23.3043   -0.4673 N.am      1 UNK        -0.4318 
      5 CA         31.9747   24.1758   -0.3428 C.3       1 UNK         0.0824 
      6 C6         31.6796   24.5199    1.1435 C.3       12 UNK        -0.0944 
      7 S7         30.1488   25.4808    1.4100 S.3       12 UNK        -0.2672 
      8 C8         29.1414   24.2830    2.3362 C.3       12 UNK         0.0333 
      9 C9         29.5041   24.2856    3.8104 C.ar      12 UNK        -0.0807 
     10 C10        30.2936   23.2694    4.3499 C.ar      12 UNK        -0.0894 
     11 C11        30.6231   23.2749    5.7075 C.ar      12 UNK        -0.0804 
     12 C12        30.1464   24.3002    6.5309 C.ar      12 UNK        -0.0824 
     13 C13        29.3468   25.3207    6.0037 C.ar      12 UNK        -0.0762 
     14 C14        29.0372   25.3086    4.6385 C.ar      12 UNK        -0.0782 
     15 C15        28.8547   26.4446    6.9096 C.3       12 UNK         0.0230 
     16 S16        27.1163   26.9111    6.5978 S.3       12 UNK        -0.2608 
     17 C17        27.2795   28.7136    6.3803 C.3       12 UNK        -0.0989 
     18 CA         27.5742   29.1131    4.9118 C.3       5 UNK         0.0716 
     19 N          26.4702   28.7569    4.0131 N.am      5 UNK        -0.4135 
     20 C          26.3912   29.0203    2.7015 C.2       4 UNK         0.5031 
     21 O          27.2189   29.6836    2.0690 O.2       4 UNK        -0.5229 
     22 CA         25.1617   28.4538    1.9687 C.3       4 UNK         0.0329 
     23 CB         24.0086   29.4699    1.9559 C.3       4 UNK        -0.2001 
     24 N          25.5110   28.0933    0.5929 N.am      4 UNK        -0.4303 
     25 C          26.2552   27.0257    0.2795 C.2       3 UNK         0.5044 
     26 O          26.5429   26.1380    1.0848 O.2       3 UNK        -0.5152 
     27 CA         26.7776   26.9460   -1.1619 C.3       3 UNK         0.0319 
     28 CB         27.6553   28.1655   -1.5089 C.3       3 UNK        -0.2001 
     29 N          27.5683   25.7262   -1.3154 N.am      3 UNK        -0.4354 
     30 C          27.7687   25.0575   -2.4568 C.2       2 UNK         0.4964 
     31 O          27.2774   25.3897   -3.5369 O.2       2 UNK        -0.5047 
     32 CA         28.7202   23.8517   -2.3775 C.3       2 UNK         0.0288 
     33 CB         29.0380   23.2321   -3.7550 C.3       2 UNK        -0.2113 
     34 N          29.9515   24.2721   -1.7108 N.am      2 UNK        -0.4145 
     35 C          30.8054   23.4750   -1.0587 C.2       1 UNK         0.5006 
     36 O          30.6965   22.2470   -0.9922 O.2       1 UNK        -0.5103 
     37 C          27.9434   30.6067    4.8313 C.2       5 UNK         0.5055 
     38 O          27.1765   31.4495    5.3014 O.2       5 UNK        -0.5220 
     39 N          29.1087   30.8848    4.2318 N.am      6 UNK        -0.4450 
     40 CA         29.7265   32.1980    4.0258 C.3       6 UNK         0.0367 
     41 CB         29.9751   32.9255    5.3643 C.3       6 UNK        -0.1929 
     42 C          29.0066   33.0870    2.9932 C.2       6 UNK         0.5070 
     43 O          29.3710   34.2561    2.8602 O.2       6 UNK        -0.5237 
     44 N          28.0457   32.5318    2.2381 N.am      7 UNK        -0.4739 
     45 CA         27.4334   33.1995    1.0830 C.3       7 UNK         0.0276 
     46 CB         26.0729   32.5577    0.7743 C.3       7 UNK        -0.1927 
     47 C          28.3474   33.1422   -0.1533 C.2       7 UNK         0.5013 
     48 O          28.2616   34.0192   -1.0136 O.2       7 UNK        -0.5193 
     49 N          29.2128   32.1222   -0.2012 N.am      8 UNK        -0.4253 
     50 CA         30.2573   31.9363   -1.2071 C.3       8 UNK         0.0242 
     51 CB         29.6748   31.3217   -2.4926 C.3       8 UNK        -0.2000 
     52 C          31.4202   31.0893   -0.6694 C.2       8 UNK         0.4948 
     53 O          32.5547   31.3067   -1.0968 O.2       8 UNK        -0.5275 
     54 N          31.1436   30.1529    0.2496 N.am      9 UNK        -0.4246 
     55 CA         32.1262   29.2601    0.8592 C.3       9 UNK         0.0261 
     56 CB         32.4104   28.0810   -0.0931 C.3       9 UNK        -0.1959 
     57 C          31.6025   28.7764    2.2187 C.2       9 UNK         0.5033 
     58 O          30.4479   29.0445    2.5642 O.2       9 UNK        -0.5390 
     59 N          32.4649   28.0751    2.9591 N.am      10 UNK        -0.4215 
     60 CA         32.1959   27.4065    4.2291 C.3       10 UNK         0.0240 
     61 CB         31.9153   28.4333    5.3470 C.3       10 UNK        -0.1982 
     62 C          33.4208   26.5519    4.5798 C.2       10 UNK         0.4970 
     63 O          34.4978   26.7810    4.0216 O.2       10 UNK        -0.4916 
     64 N          33.2528   25.6198    5.5257 N.am      11 UNK        -0.4279 
     65 CA         34.3580   24.8576    6.1356 C.3       11 UNK         0.1003 
     66 C          35.2839   25.6990    7.0657 C.2       11 UNK         0.5709 
     67 N          34.8966   26.8950    7.4948 N.am      11 UNK        -0.7358 
     68 O          36.3813   25.2575    7.3986 O.2       11 UNK        -0.4999 
     69 C69        33.8522   23.5918    6.8769 C.3       12 UNK        -0.0954 
     70 S70        33.2169   22.3155    5.7418 S.3       12 UNK        -0.2268 
     71 C71        31.4843   22.1579    6.2734 C.3       12 UNK         0.0203 
     72 H72        36.1319   22.6205    0.2819 H         1 UNK         0.0888 
     73 H73        35.0563   21.6452   -0.7210 H         1 UNK         0.0888 
     74 H74        36.1008   22.8560   -1.4680 H         1 UNK         0.0888 
     75 H75        32.9040   22.3324   -0.6306 H         1 UNK         0.3017 
     76 H76        32.1836   25.1025   -0.8818 H         1 UNK         0.0873 
     77 H77        31.6450   23.6053    1.7370 H         1 UNK         0.0745 
     78 H78        32.5051   25.1020    1.5556 H         1 UNK         0.0745 
     79 H79        29.2518   23.2875    1.9030 H         1 UNK         0.0705 
     80 H80        28.0880   24.5368    2.2337 H         1 UNK         0.0705 
     81 H81        30.6588   22.4740    3.7146 H         1 UNK         0.1334 
     82 H82        30.3968   24.3014    7.5834 H         1 UNK         0.1417 
     83 H83        28.4335   26.0970    4.2099 H         1 UNK         0.1562 
     84 H84        29.5107   27.3026    6.7671 H         1 UNK         0.0748 
     85 H85        28.9455   26.1603    7.9591 H         1 UNK         0.0748 
     86 H86        28.0571   29.0807    7.0537 H         1 UNK         0.0940 
     87 H87        26.3541   29.1821    6.7218 H         1 UNK         0.0940 
     88 H88        28.4411   28.5391    4.5770 H         1 UNK         0.0703 
     89 H89        25.7289   28.2209    4.4395 H         1 UNK         0.3081 
     90 H90        24.8233   27.5557    2.4907 H         1 UNK         0.0719 
     91 H91        24.2671   30.3734    1.4053 H         1 UNK         0.0809 
     92 H92        23.1148   29.0458    1.4980 H         1 UNK         0.0809 
     93 H93        23.7398   29.7715    2.9692 H         1 UNK         0.0809 
     94 H94        25.3396   28.7921   -0.1144 H         1 UNK         0.2990 
     95 H95        25.9140   26.9090   -1.8291 H         1 UNK         0.0690 
     96 H96        28.0495   28.0946   -2.5227 H         1 UNK         0.0788 
     97 H97        28.5019   28.2544   -0.8260 H         1 UNK         0.0788 
     98 H98        27.0910   29.0968   -1.4516 H         1 UNK         0.0788 
     99 H99        27.9380   25.3656   -0.4433 H         1 UNK         0.2993 
    100 H100       28.2236   23.0972   -1.7632 H         1 UNK         0.0949 
    101 H101       29.5451   23.9439   -4.4075 H         1 UNK         0.0767 
    102 H102       29.6751   22.3527   -3.6599 H         1 UNK         0.0767 
    103 H103       28.1257   22.9139   -4.2611 H         1 UNK         0.0767 
    104 H104       30.1081   25.2710   -1.6924 H         1 UNK         0.3013 
    105 H105       29.5915   30.1159    3.7628 H         1 UNK         0.3121 
    106 H106       30.7041   31.9858    3.5903 H         1 UNK         0.0774 
    107 H107       30.5891   33.8148    5.2172 H         1 UNK         0.0815 
    108 H108       29.0447   33.2514    5.8297 H         1 UNK         0.0815 
    109 H109       30.5009   32.2854    6.0727 H         1 UNK         0.0815 
    110 H110       27.7917   31.5591    2.3928 H         1 UNK         0.2987 
    111 H111       27.2660   34.2508    1.3281 H         1 UNK         0.0949 
    112 H112       25.5590   33.1013   -0.0195 H         1 UNK         0.0806 
    113 H113       26.1813   31.5253    0.4410 H         1 UNK         0.0806 
    114 H114       25.4225   32.5671    1.6490 H         1 UNK         0.0806 
    115 H115       29.2082   31.4855    0.5809 H         1 UNK         0.3010 
    116 H116       30.6713   32.9173   -1.4517 H         1 UNK         0.0829 
    117 H117       28.9019   31.9567   -2.9255 H         1 UNK         0.0813 
    118 H118       30.4500   31.1952   -3.2495 H         1 UNK         0.0813 
    119 H119       29.2387   30.3415   -2.3067 H         1 UNK         0.0813 
    120 H120       30.2040   30.0025    0.5915 H         1 UNK         0.3038 
    121 H121       33.0504   29.8127    1.0420 H         1 UNK         0.0769 
    122 H122       33.1138   27.3697    0.3416 H         1 UNK         0.0811 
    123 H123       32.8465   28.4249   -1.0310 H         1 UNK         0.0811 
    124 H124       31.4973   27.5364   -0.3332 H         1 UNK         0.0811 
    125 H125       33.4030   27.9025    2.6155 H         1 UNK         0.3204 
    126 H126       31.3372   26.7474    4.0983 H         1 UNK         0.0748 
    127 H127       31.8112   27.9478    6.3174 H         1 UNK         0.0771 
    128 H128       32.7220   29.1624    5.4322 H         1 UNK         0.0771 
    129 H129       30.9910   28.9797    5.1694 H         1 UNK         0.0771 
    130 H130       32.3339   25.4581    5.9103 H         1 UNK         0.2980 
    131 H131       35.0029   24.5204    5.3215 H         1 UNK         0.0545 
    132 H132       34.0007   27.2710    7.2345 H         1 UNK         0.3459 
    133 H133       35.5122   27.4245    8.0919 H         1 UNK         0.3459 
    134 H134       33.0936   23.8582    7.6145 H         1 UNK         0.0616 
    135 H135       34.6618   23.1212    7.4381 H         1 UNK         0.0616 
    136 H136       31.4302   22.1267    7.3627 H         1 UNK         0.0634 
    137 H137       31.0988   21.1993    5.9232 H         1 UNK         0.0634 
@<TRIPOS>BOND
     1    1    2 1    
     2    1   72 1    
     3    1   73 1    
     4    1   74 1    
     5    2    3 2    
     6    2    4 am   BACKBONE|DICT|INTERRES
     7    4    5 1    
     8    4   75 1    
     9    5    6 1    
    10    5   35 1    
    11    5   76 1    
    12    6    7 1    
    13    6   77 1    
    14    6   78 1    
    15    7    8 1    
    16    8    9 1    
    17    8   79 1    
    18    8   80 1    
    19    9   10 ar   
    20    9   14 ar   
    21   10   11 ar   
    22   10   81 1    
    23   11   12 ar   
    24   11   71 1    
    25   12   13 ar   
    26   12   82 1    
    27   13   14 ar   
    28   13   15 1    
    29   14   83 1    
    30   15   16 1    
    31   15   84 1    
    32   15   85 1    
    33   16   17 1    
    34   17   18 1    
    35   17   86 1    
    36   17   87 1    
    37   18   19 1    
    38   18   37 1    
    39   18   88 1    
    40   19   20 am   BACKBONE|DICT|INTERRES
    41   19   89 1    
    42   20   21 2    
    43   20   22 1    
    44   22   23 1    
    45   22   24 1    
    46   22   90 1    
    47   23   91 1    
    48   23   92 1    
    49   23   93 1    
    50   24   25 am   BACKBONE|DICT|INTERRES
    51   24   94 1    
    52   25   26 2    
    53   25   27 1    
    54   27   28 1    
    55   27   29 1    
    56   27   95 1    
    57   28   96 1    
    58   28   97 1    
    59   28   98 1    
    60   29   30 am   BACKBONE|DICT|INTERRES
    61   29   99 1    
    62   30   31 2    
    63   30   32 1    
    64   32   33 1    
    65   32   34 1    
    66   32  100 1    
    67   33  101 1    
    68   33  102 1    
    69   33  103 1    
    70   34   35 am   BACKBONE|DICT|INTERRES
    71   34  104 1    
    72   35   36 2    
    73   37   38 2    
    74   37   39 am   BACKBONE|DICT|INTERRES
    75   39   40 1    
    76   39  105 1    
    77   40   41 1    
    78   40   42 1    
    79   40  106 1    
    80   41  107 1    
    81   41  108 1    
    82   41  109 1    
    83   42   43 2    
    84   42   44 am   BACKBONE|DICT|INTERRES
    85   44   45 1    
    86   44  110 1    
    87   45   46 1    
    88   45   47 1    
    89   45  111 1    
    90   46  112 1    
    91   46  113 1    
    92   46  114 1    
    93   47   48 2    
    94   47   49 am   BACKBONE|DICT|INTERRES
    95   49   50 1    
    96   49  115 1    
    97   50   51 1    
    98   50   52 1    
    99   50  116 1    
   100   51  117 1    
   101   51  118 1    
   102   51  119 1    
   103   52   53 2    
   104   52   54 am   BACKBONE|DICT|INTERRES
   105   54   55 1    
   106   54  120 1    
   107   55   56 1    
   108   55   57 1    
   109   55  121 1    
   110   56  122 1    
   111   56  123 1    
   112   56  124 1    
   113   57   58 2    
   114   57   59 am   BACKBONE|DICT|INTERRES
   115   59   60 1    
   116   59  125 1    
   117   60   61 1    
   118   60   62 1    
   119   60  126 1    
   120   61  127 1    
   121   61  128 1    
   122   61  129 1    
   123   62   63 2    
   124   62   64 am   BACKBONE|DICT|INTERRES
   125   64   65 1    
   126   64  130 1    
   127   65   66 1    
   128   65   69 1    
   129   65  131 1    
   130   66   67 am   BACKBONE|DICT|INTERRES
   131   66   68 2    
   132   67  132 1    
   133   67  133 1    
   134   69   70 1    
   135   69  134 1    
   136   69  135 1    
   137   70   71 1    
   138   71  136 1    
   139   71  137 1    
@<TRIPOS>SUBSTRUCTURE
     1 UNK         1 GROUP             0       ****    0 ROOT    
