@<TRIPOS>MOLECULE
3R136
137   139    1
SMALL
USER_CHARGES


@<TRIPOS>ATOM
      1 CA         31.3432   26.5807   -5.5743 C.3       0 UNK        -0.1979 
      2 C          30.7289   26.5781   -4.1823 C.2       0 UNK         0.4864 
      3 O          30.4204   27.6449   -3.6502 O.2       0 UNK        -0.5359 
      4 N          30.5584   25.3898   -3.5886 N.am      1 UNK        -0.4318 
      5 CA         29.9318   25.1942   -2.2801 C.3       1 UNK         0.0824 
      6 C6         30.2713   23.7949   -1.7058 C.3       12 UNK        -0.0944 
      7 S7         29.8627   23.6618    0.0664 S.3       12 UNK        -0.2672 
      8 C8         31.5083   23.6209    0.8376 C.3       12 UNK         0.0333 
      9 C9         31.4382   24.1455    2.2620 C.ar      12 UNK        -0.0807 
     10 C10        31.9681   25.4004    2.5698 C.ar      12 UNK        -0.0894 
     11 C11        31.8693   25.9166    3.8633 C.ar      12 UNK        -0.0804 
     12 C12        31.2376   25.1634    4.8577 C.ar      12 UNK        -0.0824 
     13 C13        30.6992   23.9057    4.5616 C.ar      12 UNK        -0.0762 
     14 C14        30.8157   23.3960    3.2648 C.ar      12 UNK        -0.0782 
     15 C15        29.9637   23.1083    5.6313 C.3       12 UNK         0.0230 
     16 S16        28.1523   23.1712    5.4080 S.3       12 UNK        -0.2608 
     17 C17        27.8292   24.9576    5.5809 C.3       12 UNK        -0.0989 
     18 CA         27.6621   25.6439    4.1889 C.3       5 UNK         0.0716 
     19 N          26.2813   25.7205    3.7010 N.am      5 UNK        -0.4135 
     20 C          25.2419   26.3363    4.2885 C.2       4 UNK         0.5031 
     21 O          25.2943   26.8532    5.4051 O.2       4 UNK        -0.5229 
     22 CA         23.9104   26.4239    3.5095 C.3       4 UNK         0.0329 
     23 CB         23.5173   27.8936    3.2756 C.3       4 UNK        -0.2001 
     24 N          23.9272   25.7405    2.2153 N.am      4 UNK        -0.4303 
     25 C          23.8928   24.4145    2.0287 C.2       3 UNK         0.5044 
     26 O          23.7347   23.6006    2.9386 O.2       3 UNK        -0.5152 
     27 CA         24.1045   23.9069    0.5877 C.3       3 UNK         0.0319 
     28 CB         22.7680   23.4537   -0.0221 C.3       3 UNK        -0.2001 
     29 N          24.7444   24.8700   -0.3220 N.am      3 UNK        -0.4354 
     30 C          25.9649   25.4020   -0.1625 C.2       2 UNK         0.4964 
     31 O          26.6788   25.1997    0.8238 O.2       2 UNK        -0.5047 
     32 CA         26.4265   26.3861   -1.2453 C.3       2 UNK         0.0288 
     33 CB         26.1501   27.8310   -0.7975 C.3       2 UNK        -0.2113 
     34 N          27.8599   26.2219   -1.4641 N.am      2 UNK        -0.4145 
     35 C          28.4068   25.4117   -2.3761 C.2       1 UNK         0.5006 
     36 O          27.7624   24.8192   -3.2469 O.2       1 UNK        -0.5103 
     37 C          28.3210   27.0319    4.0885 C.2       5 UNK         0.5055 
     38 O          28.5868   27.6839    5.0994 O.2       5 UNK        -0.5220 
     39 N          28.5626   27.4533    2.8450 N.am      6 UNK        -0.4450 
     40 CA         29.3228   28.6410    2.4824 C.3       6 UNK         0.0367 
     41 CB         28.3977   29.8685    2.4271 C.3       6 UNK        -0.1929 
     42 C          29.9733   28.3673    1.1242 C.2       6 UNK         0.5070 
     43 O          29.4579   27.5497    0.3589 O.2       6 UNK        -0.5237 
     44 N          31.0764   29.0586    0.8404 N.am      7 UNK        -0.4739 
     45 CA         31.7738   29.0207   -0.4428 C.3       7 UNK         0.0276 
     46 CB         32.7520   27.8257   -0.4841 C.3       7 UNK        -0.1927 
     47 C          32.4182   30.3964   -0.6556 C.2       7 UNK         0.5013 
     48 O          31.6984   31.3962   -0.6756 O.2       7 UNK        -0.5193 
     49 N          33.7540   30.4449   -0.7596 N.am      8 UNK        -0.4253 
     50 CA         34.5456   31.6820   -0.7848 C.3       8 UNK         0.0242 
     51 CB         35.9780   31.3517   -1.2361 C.3       8 UNK        -0.2000 
     52 C          34.5630   32.4243    0.5684 C.2       8 UNK         0.4948 
     53 O          34.9052   33.6070    0.6046 O.2       8 UNK        -0.5275 
     54 N          34.1932   31.7230    1.6450 N.am      9 UNK        -0.4246 
     55 CA         34.0032   32.2282    2.9974 C.3       9 UNK         0.0261 
     56 CB         35.2955   32.0094    3.8060 C.3       9 UNK        -0.1959 
     57 C          32.8168   31.4789    3.6210 C.2       9 UNK         0.5033 
     58 O          32.3286   30.5049    3.0381 O.2       9 UNK        -0.5390 
     59 N          32.3890   31.9351    4.8043 N.am      10 UNK        -0.4215 
     60 CA         31.3342   31.3077    5.6089 C.3       10 UNK         0.0240 
     61 CB         30.6746   32.3840    6.4882 C.3       10 UNK        -0.1982 
     62 C          31.8356   30.1333    6.4745 C.2       10 UNK         0.4970 
     63 O          31.0085   29.4368    7.0617 O.2       10 UNK        -0.4916 
     64 N          33.1611   29.9382    6.5518 N.am      11 UNK        -0.4279 
     65 CA         33.8493   28.8648    7.2970 C.3       11 UNK         0.1003 
     66 C          33.6968   28.9407    8.8484 C.2       11 UNK         0.5709 
     67 N          33.3021   30.0731    9.4188 N.am      11 UNK        -0.7358 
     68 O          33.9751   27.9738    9.5544 O.2       11 UNK        -0.4999 
     69 C69        33.5590   27.4422    6.7301 C.3       12 UNK        -0.0954 
     70 S70        34.0225   27.2812    4.9716 S.3       12 UNK        -0.2268 
     71 C71        32.3975   27.3114    4.1575 C.3       12 UNK         0.0203 
     72 H72        32.2634   27.1642   -5.5768 H         1 UNK         0.0888 
     73 H73        31.5792   25.5739   -5.9185 H         1 UNK         0.0888 
     74 H74        30.6525   27.0297   -6.2876 H         1 UNK         0.0888 
     75 H75        30.7982   24.5466   -4.0901 H         1 UNK         0.3017 
     76 H76        30.3488   25.9468   -1.6076 H         1 UNK         0.0873 
     77 H77        31.3327   23.5806   -1.8402 H         1 UNK         0.0745 
     78 H78        29.7412   23.0089   -2.2473 H         1 UNK         0.0745 
     79 H79        32.2069   24.2194    0.2507 H         1 UNK         0.0705 
     80 H80        31.8894   22.5988    0.8319 H         1 UNK         0.0705 
     81 H81        32.4419   25.9877    1.7967 H         1 UNK         0.1334 
     82 H82        31.1410   25.5695    5.8547 H         1 UNK         0.1417 
     83 H83        30.3884   22.4313    3.0259 H         1 UNK         0.1562 
     84 H84        30.2183   23.4711    6.6285 H         1 UNK         0.0748 
     85 H85        30.2883   22.0674    5.5950 H         1 UNK         0.0748 
     86 H86        28.6486   25.3894    6.1572 H         1 UNK         0.0940 
     87 H87        26.9491   25.0891    6.2096 H         1 UNK         0.0940 
     88 H88        28.1904   25.0357    3.4517 H         1 UNK         0.0703 
     89 H89        26.1548   25.3726    2.7560 H         1 UNK         0.3081 
     90 H90        23.1431   25.9592    4.1322 H         1 UNK         0.0719 
     91 H91        24.2568   28.4172    2.6682 H         1 UNK         0.0809 
     92 H92        22.5521   27.9726    2.7748 H         1 UNK         0.0809 
     93 H93        23.4322   28.4327    4.2202 H         1 UNK         0.0809 
     94 H94        24.0533   26.3229    1.4007 H         1 UNK         0.2990 
     95 H95        24.7622   23.0375    0.6525 H         1 UNK         0.0690 
     96 H96        22.9122   22.9932   -0.9998 H         1 UNK         0.0788 
     97 H97        22.0750   24.2877   -0.1407 H         1 UNK         0.0788 
     98 H98        22.2796   22.7124    0.6123 H         1 UNK         0.0788 
     99 H99        24.2167   25.1160   -1.1478 H         1 UNK         0.2993 
    100 H100       25.8836   26.1936   -2.1733 H         1 UNK         0.0949 
    101 H101       26.5052   28.5484   -1.5376 H         1 UNK         0.0767 
    102 H102       25.0816   28.0040   -0.6637 H         1 UNK         0.0767 
    103 H103       26.6407   28.0601    0.1494 H         1 UNK         0.0767 
    104 H104       28.4673   26.6497   -0.7630 H         1 UNK         0.3013 
    105 H105       28.3501   26.8504    2.0566 H         1 UNK         0.3121 
    106 H106       30.1086   28.8130    3.2195 H         1 UNK         0.0774 
    107 H107       28.9582   30.7649    2.1587 H         1 UNK         0.0815 
    108 H108       27.6045   29.7437    1.6895 H         1 UNK         0.0815 
    109 H109       27.9309   30.0560    3.3941 H         1 UNK         0.0815 
    110 H110       31.4381   29.7161    1.5297 H         1 UNK         0.2987 
    111 H111       31.0444   28.8973   -1.2470 H         1 UNK         0.0949 
    112 H112       33.2911   27.7867   -1.4316 H         1 UNK         0.0806 
    113 H113       33.4826   27.8639    0.3248 H         1 UNK         0.0806 
    114 H114       32.2141   26.8824   -0.3957 H         1 UNK         0.0806 
    115 H115       34.2697   29.5767   -0.7431 H         1 UNK         0.3010 
    116 H116       34.1006   32.3567   -1.5194 H         1 UNK         0.0829 
    117 H117       35.9875   30.8893   -2.2233 H         1 UNK         0.0813 
    118 H118       36.5854   32.2559   -1.2987 H         1 UNK         0.0813 
    119 H119       36.4751   30.6738   -0.5409 H         1 UNK         0.0813 
    120 H120       33.8586   30.7773    1.5168 H         1 UNK         0.3038 
    121 H121       33.7580   33.2920    2.9645 H         1 UNK         0.0769 
    122 H122       35.2117   32.4195    4.8128 H         1 UNK         0.0811 
    123 H123       36.1445   32.5020    3.3314 H         1 UNK         0.0811 
    124 H124       35.5371   30.9495    3.9000 H         1 UNK         0.0811 
    125 H125       32.8312   32.7535    5.1993 H         1 UNK         0.3204 
    126 H126       30.5710   30.9055    4.9384 H         1 UNK         0.0748 
    127 H127       29.8550   31.9636    7.0731 H         1 UNK         0.0771 
    128 H128       31.3832   32.8251    7.1903 H         1 UNK         0.0771 
    129 H129       30.2558   33.1881    5.8827 H         1 UNK         0.0771 
    130 H130       33.7649   30.5690    6.0487 H         1 UNK         0.2980 
    131 H131       34.9112   29.0524    7.1349 H         1 UNK         0.0545 
    132 H132       33.2184   30.1161   10.4221 H         1 UNK         0.3459 
    133 H133       33.0799   30.8790    8.8578 H         1 UNK         0.3459 
    134 H134       34.1352   26.6907    7.2723 H         1 UNK         0.0616 
    135 H135       32.5120   27.1754    6.8741 H         1 UNK         0.0616 
    136 H136       32.4992   27.8720    3.2280 H         1 UNK         0.0634 
    137 H137       31.6741   27.8585    4.7608 H         1 UNK         0.0634 
@<TRIPOS>BOND
     1    1    2 1    
     2    1   72 1    
     3    1   73 1    
     4    1   74 1    
     5    2    3 2    
     6    2    4 am   BACKBONE|DICT|INTERRES
     7    4    5 1    
     8    4   75 1    
     9    5    6 1    
    10    5   35 1    
    11    5   76 1    
    12    6    7 1    
    13    6   77 1    
    14    6   78 1    
    15    7    8 1    
    16    8    9 1    
    17    8   79 1    
    18    8   80 1    
    19    9   10 ar   
    20    9   14 ar   
    21   10   11 ar   
    22   10   81 1    
    23   11   12 ar   
    24   11   71 1    
    25   12   13 ar   
    26   12   82 1    
    27   13   14 ar   
    28   13   15 1    
    29   14   83 1    
    30   15   16 1    
    31   15   84 1    
    32   15   85 1    
    33   16   17 1    
    34   17   18 1    
    35   17   86 1    
    36   17   87 1    
    37   18   19 1    
    38   18   37 1    
    39   18   88 1    
    40   19   20 am   BACKBONE|DICT|INTERRES
    41   19   89 1    
    42   20   21 2    
    43   20   22 1    
    44   22   23 1    
    45   22   24 1    
    46   22   90 1    
    47   23   91 1    
    48   23   92 1    
    49   23   93 1    
    50   24   25 am   BACKBONE|DICT|INTERRES
    51   24   94 1    
    52   25   26 2    
    53   25   27 1    
    54   27   28 1    
    55   27   29 1    
    56   27   95 1    
    57   28   96 1    
    58   28   97 1    
    59   28   98 1    
    60   29   30 am   BACKBONE|DICT|INTERRES
    61   29   99 1    
    62   30   31 2    
    63   30   32 1    
    64   32   33 1    
    65   32   34 1    
    66   32  100 1    
    67   33  101 1    
    68   33  102 1    
    69   33  103 1    
    70   34   35 am   BACKBONE|DICT|INTERRES
    71   34  104 1    
    72   35   36 2    
    73   37   38 2    
    74   37   39 am   BACKBONE|DICT|INTERRES
    75   39   40 1    
    76   39  105 1    
    77   40   41 1    
    78   40   42 1    
    79   40  106 1    
    80   41  107 1    
    81   41  108 1    
    82   41  109 1    
    83   42   43 2    
    84   42   44 am   BACKBONE|DICT|INTERRES
    85   44   45 1    
    86   44  110 1    
    87   45   46 1    
    88   45   47 1    
    89   45  111 1    
    90   46  112 1    
    91   46  113 1    
    92   46  114 1    
    93   47   48 2    
    94   47   49 am   BACKBONE|DICT|INTERRES
    95   49   50 1    
    96   49  115 1    
    97   50   51 1    
    98   50   52 1    
    99   50  116 1    
   100   51  117 1    
   101   51  118 1    
   102   51  119 1    
   103   52   53 2    
   104   52   54 am   BACKBONE|DICT|INTERRES
   105   54   55 1    
   106   54  120 1    
   107   55   56 1    
   108   55   57 1    
   109   55  121 1    
   110   56  122 1    
   111   56  123 1    
   112   56  124 1    
   113   57   58 2    
   114   57   59 am   BACKBONE|DICT|INTERRES
   115   59   60 1    
   116   59  125 1    
   117   60   61 1    
   118   60   62 1    
   119   60  126 1    
   120   61  127 1    
   121   61  128 1    
   122   61  129 1    
   123   62   63 2    
   124   62   64 am   BACKBONE|DICT|INTERRES
   125   64   65 1    
   126   64  130 1    
   127   65   66 1    
   128   65   69 1    
   129   65  131 1    
   130   66   67 am   BACKBONE|DICT|INTERRES
   131   66   68 2    
   132   67  132 1    
   133   67  133 1    
   134   69   70 1    
   135   69  134 1    
   136   69  135 1    
   137   70   71 1    
   138   71  136 1    
   139   71  137 1    
@<TRIPOS>SUBSTRUCTURE
     1 UNK         1 GROUP             0       ****    0 ROOT    
