@<TRIPOS>MOLECULE
3R136
137   139    1
SMALL
USER_CHARGES


@<TRIPOS>ATOM
      1 CA         28.9434   22.2651    4.2738 C.3       0 UNK        -0.1979 
      2 C          28.7953   21.4542    2.9962 C.2       0 UNK         0.4864 
      3 O          27.9682   20.5433    2.9400 O.2       0 UNK        -0.5359 
      4 N          29.5830   21.7857    1.9642 N.am      1 UNK        -0.4318 
      5 CA         29.5515   21.1352    0.6449 C.3       1 UNK         0.0824 
      6 C6         30.8654   21.3551   -0.1458 C.3       12 UNK        -0.0944 
      7 S7         32.3205   20.6833    0.7267 S.3       12 UNK        -0.2672 
      8 C8         33.3447   22.1698    0.9640 C.3       12 UNK         0.0333 
      9 C9         32.7242   23.1468    1.9527 C.ar      12 UNK        -0.0807 
     10 C10        32.7376   22.8612    3.3202 C.ar      12 UNK        -0.0894 
     11 C11        32.1978   23.7641    4.2397 C.ar      12 UNK        -0.0804 
     12 C12        31.6449   24.9644    3.7815 C.ar      12 UNK        -0.0824 
     13 C13        31.6240   25.2645    2.4135 C.ar      12 UNK        -0.0762 
     14 C14        32.1652   24.3479    1.5063 C.ar      12 UNK        -0.0782 
     15 C15        31.0874   26.5972    1.8982 C.3       12 UNK         0.0230 
     16 S16        29.5442   27.1369    2.7047 S.3       12 UNK        -0.2608 
     17 C17        29.3066   28.7612    1.9062 C.3       12 UNK        -0.0989 
     18 CA         28.2033   28.7251    0.8235 C.3       5 UNK         0.0716 
     19 N          26.8869   28.4445    1.3980 N.am      5 UNK        -0.4135 
     20 C          25.8551   27.9546    0.7056 C.2       4 UNK         0.5031 
     21 O          25.9051   27.6496   -0.4893 O.2       4 UNK        -0.5229 
     22 CA         24.5447   27.7547    1.4709 C.3       4 UNK         0.0329 
     23 CB         23.5321   28.8689    1.1562 C.3       4 UNK        -0.2001 
     24 N          24.0162   26.4616    1.0613 N.am      4 UNK        -0.4303 
     25 C          23.3316   25.6121    1.8332 C.2       3 UNK         0.5044 
     26 O          22.9085   25.8889    2.9564 O.2       3 UNK        -0.5152 
     27 CA         23.1056   24.1976    1.2648 C.3       3 UNK         0.0319 
     28 CB         21.7510   24.1176    0.5423 C.3       3 UNK        -0.2001 
     29 N          24.1701   23.7503    0.3555 N.am      3 UNK        -0.4354 
     30 C          25.4483   23.5551    0.7117 C.2       2 UNK         0.4964 
     31 O          25.8777   23.7168    1.8576 O.2       2 UNK        -0.5047 
     32 CA         26.4105   23.1369   -0.4070 C.3       2 UNK         0.0288 
     33 CB         26.7662   24.3327   -1.3086 C.3       2 UNK        -0.2113 
     34 N          27.6313   22.6211    0.2025 N.am      2 UNK        -0.4145 
     35 C          28.3317   21.5572   -0.2067 C.2       1 UNK         0.5006 
     36 O          28.0533   20.9108   -1.2188 O.2       1 UNK        -0.5103 
     37 C          28.1662   30.0559    0.0500 C.2       5 UNK         0.5055 
     38 O          27.5605   31.0204    0.5244 O.2       5 UNK        -0.5220 
     39 N          28.8407   30.0924   -1.1070 N.am      6 UNK        -0.4450 
     40 CA         29.0026   31.2996   -1.9230 C.3       6 UNK         0.0367 
     41 CB         29.3766   30.9003   -3.3599 C.3       6 UNK        -0.1929 
     42 C          30.0494   32.2675   -1.3436 C.2       6 UNK         0.5070 
     43 O          29.9066   33.4799   -1.5050 O.2       6 UNK        -0.5237 
     44 N          31.0825   31.7212   -0.6874 N.am      7 UNK        -0.4739 
     45 CA         32.1259   32.4838   -0.0035 C.3       7 UNK         0.0276 
     46 CB         33.3580   31.5857    0.1998 C.3       7 UNK        -0.1927 
     47 C          31.6141   32.9951    1.3497 C.2       7 UNK         0.5013 
     48 O          31.0535   32.2080    2.1155 O.2       7 UNK        -0.5193 
     49 N          31.8674   34.2769    1.6482 N.am      8 UNK        -0.4253 
     50 CA         31.4680   34.9436    2.8957 C.3       8 UNK         0.0242 
     51 CB         31.7697   36.4473    2.7881 C.3       8 UNK        -0.2000 
     52 C          32.1177   34.3538    4.1620 C.2       8 UNK         0.4948 
     53 O          31.5238   34.4320    5.2377 O.2       8 UNK        -0.5275 
     54 N          33.3068   33.7544    4.0085 N.am      9 UNK        -0.4246 
     55 CA         34.0154   33.0138    5.0555 C.3       9 UNK         0.0261 
     56 CB         35.4973   32.8939    4.6614 C.3       9 UNK        -0.1959 
     57 C          33.4222   31.6178    5.3329 C.2       9 UNK         0.5033 
     58 O          33.8017   31.0026    6.3319 O.2       9 UNK        -0.5390 
     59 N          32.5324   31.1312    4.4517 N.am      10 UNK        -0.4215 
     60 CA         31.8946   29.8135    4.4704 C.3       10 UNK         0.0240 
     61 CB         30.8098   29.7528    5.5696 C.3       10 UNK        -0.1982 
     62 C          32.9332   28.6781    4.5258 C.2       10 UNK         0.4970 
     63 O          33.7407   28.5633    3.6026 O.2       10 UNK        -0.4916 
     64 N          32.9000   27.8782    5.5967 N.am      11 UNK        -0.4279 
     65 CA         33.8536   26.7962    5.8748 C.3       11 UNK         0.1003 
     66 C          35.2768   27.2760    6.2964 C.2       11 UNK         0.5709 
     67 N          35.5033   28.5573    6.5674 N.am      11 UNK        -0.7358 
     68 O          36.2012   26.4704    6.3707 O.2       11 UNK        -0.4999 
     69 C69        33.2435   25.7899    6.8908 C.3       12 UNK        -0.0954 
     70 S70        33.7005   24.0563    6.5544 S.3       12 UNK        -0.2268 
     71 C71        32.2062   23.4283    5.7240 C.3       12 UNK         0.0203 
     72 H72        27.9807   22.3616    4.7754 H         1 UNK         0.0888 
     73 H73        29.6371   21.7732    4.9547 H         1 UNK         0.0888 
     74 H74        29.3103   23.2698    4.0670 H         1 UNK         0.0888 
     75 H75        30.2788   22.5109    2.0783 H         1 UNK         0.3017 
     76 H76        29.4454   20.0605    0.8093 H         1 UNK         0.0873 
     77 H77        31.0116   22.4138   -0.3650 H         1 UNK         0.0745 
     78 H78        30.8159   20.8536   -1.1145 H         1 UNK         0.0745 
     79 H79        34.3251   21.8639    1.3320 H         1 UNK         0.0705 
     80 H80        33.5196   22.6467   -0.0018 H         1 UNK         0.0705 
     81 H81        33.1725   21.9336    3.6679 H         1 UNK         0.1334 
     82 H82        31.2403   25.6703    4.4933 H         1 UNK         0.1417 
     83 H83        32.1716   24.5792    0.4495 H         1 UNK         0.1562 
     84 H84        30.9050   26.5421    0.8237 H         1 UNK         0.0748 
     85 H85        31.8574   27.3548    2.0418 H         1 UNK         0.0748 
     86 H86        30.2550   29.0917    1.4776 H         1 UNK         0.0940 
     87 H87        29.0612   29.4937    2.6783 H         1 UNK         0.0940 
     88 H88        28.4465   27.9259    0.1189 H         1 UNK         0.0703 
     89 H89        26.7617   28.6934    2.3678 H         1 UNK         0.3081 
     90 H90        24.7543   27.7431    2.5430 H         1 UNK         0.0719 
     91 H91        23.9246   29.8450    1.4441 H         1 UNK         0.0809 
     92 H92        23.2976   28.9109    0.0917 H         1 UNK         0.0809 
     93 H93        22.5985   28.7202    1.6990 H         1 UNK         0.0809 
     94 H94        24.3490   26.1461    0.1590 H         1 UNK         0.2990 
     95 H95        23.0823   23.5076    2.1111 H         1 UNK         0.0690 
     96 H96        21.5353   23.1009    0.2129 H         1 UNK         0.0788 
     97 H97        21.7194   24.7694   -0.3317 H         1 UNK         0.0788 
     98 H98        20.9380   24.4206    1.2039 H         1 UNK         0.0788 
     99 H99        23.9044   23.5960   -0.6070 H         1 UNK         0.2993 
    100 H100       25.9267   22.3566   -0.9990 H         1 UNK         0.0949 
    101 H101       27.2406   25.1358   -0.7425 H         1 UNK         0.0767 
    102 H102       27.4506   24.0370   -2.1040 H         1 UNK         0.0767 
    103 H103       25.8787   24.7501   -1.7855 H         1 UNK         0.0767 
    104 H104       27.8648   23.0440    1.0915 H         1 UNK         0.3013 
    105 H105       29.2918   29.2528   -1.4421 H         1 UNK         0.3121 
    106 H106       28.0469   31.8280   -1.9573 H         1 UNK         0.0774 
    107 H107       30.3240   30.3612   -3.3987 H         1 UNK         0.0815 
    108 H108       29.4782   31.7821   -3.9942 H         1 UNK         0.0815 
    109 H109       28.6102   30.2679   -3.8085 H         1 UNK         0.0815 
    110 H110       31.1056   30.7195   -0.5742 H         1 UNK         0.2987 
    111 H111       32.4125   33.3319   -0.6299 H         1 UNK         0.0949 
    112 H112       33.1331   30.7216    0.8273 H         1 UNK         0.0806 
    113 H113       33.7417   31.2175   -0.7519 H         1 UNK         0.0806 
    114 H114       34.1675   32.1351    0.6820 H         1 UNK         0.0806 
    115 H115       32.3397   34.8510    0.9639 H         1 UNK         0.3010 
    116 H116       30.3881   34.8187    3.0020 H         1 UNK         0.0829 
    117 H117       31.4580   36.9734    3.6917 H         1 UNK         0.0813 
    118 H118       32.8350   36.6379    2.6519 H         1 UNK         0.0813 
    119 H119       31.2363   36.9013    1.9527 H         1 UNK         0.0813 
    120 H120       33.7288   33.7619    3.0913 H         1 UNK         0.3038 
    121 H121       33.9535   33.5829    5.9857 H         1 UNK         0.0769 
    122 H122       35.6258   32.3272    3.7382 H         1 UNK         0.0811 
    123 H123       36.0678   32.3823    5.4381 H         1 UNK         0.0811 
    124 H124       35.9528   33.8745    4.5220 H         1 UNK         0.0811 
    125 H125       32.2640   31.7129    3.6649 H         1 UNK         0.3204 
    126 H126       31.3958   29.7120    3.5082 H         1 UNK         0.0748 
    127 H127       30.2771   28.8009    5.5487 H         1 UNK         0.0771 
    128 H128       31.2242   29.8883    6.5694 H         1 UNK         0.0771 
    129 H129       30.0643   30.5337    5.4180 H         1 UNK         0.0771 
    130 H130       32.2311   28.0806    6.3242 H         1 UNK         0.2980 
    131 H131       33.9950   26.2732    4.9269 H         1 UNK         0.0545 
    132 H132       36.4317   28.8414    6.8350 H         1 UNK         0.3459 
    133 H133       34.7683   29.2534    6.4957 H         1 UNK         0.3459 
    134 H134       32.1544   25.8523    6.8896 H         1 UNK         0.0616 
    135 H135       33.5367   26.0352    7.9133 H         1 UNK         0.0616 
    136 H136       32.1719   22.3456    5.8541 H         1 UNK         0.0634 
    137 H137       31.3089   23.8137    6.2101 H         1 UNK         0.0634 
@<TRIPOS>BOND
     1    1    2 1    
     2    1   72 1    
     3    1   73 1    
     4    1   74 1    
     5    2    3 2    
     6    2    4 am   BACKBONE|DICT|INTERRES
     7    4    5 1    
     8    4   75 1    
     9    5    6 1    
    10    5   35 1    
    11    5   76 1    
    12    6    7 1    
    13    6   77 1    
    14    6   78 1    
    15    7    8 1    
    16    8    9 1    
    17    8   79 1    
    18    8   80 1    
    19    9   10 ar   
    20    9   14 ar   
    21   10   11 ar   
    22   10   81 1    
    23   11   12 ar   
    24   11   71 1    
    25   12   13 ar   
    26   12   82 1    
    27   13   14 ar   
    28   13   15 1    
    29   14   83 1    
    30   15   16 1    
    31   15   84 1    
    32   15   85 1    
    33   16   17 1    
    34   17   18 1    
    35   17   86 1    
    36   17   87 1    
    37   18   19 1    
    38   18   37 1    
    39   18   88 1    
    40   19   20 am   BACKBONE|DICT|INTERRES
    41   19   89 1    
    42   20   21 2    
    43   20   22 1    
    44   22   23 1    
    45   22   24 1    
    46   22   90 1    
    47   23   91 1    
    48   23   92 1    
    49   23   93 1    
    50   24   25 am   BACKBONE|DICT|INTERRES
    51   24   94 1    
    52   25   26 2    
    53   25   27 1    
    54   27   28 1    
    55   27   29 1    
    56   27   95 1    
    57   28   96 1    
    58   28   97 1    
    59   28   98 1    
    60   29   30 am   BACKBONE|DICT|INTERRES
    61   29   99 1    
    62   30   31 2    
    63   30   32 1    
    64   32   33 1    
    65   32   34 1    
    66   32  100 1    
    67   33  101 1    
    68   33  102 1    
    69   33  103 1    
    70   34   35 am   BACKBONE|DICT|INTERRES
    71   34  104 1    
    72   35   36 2    
    73   37   38 2    
    74   37   39 am   BACKBONE|DICT|INTERRES
    75   39   40 1    
    76   39  105 1    
    77   40   41 1    
    78   40   42 1    
    79   40  106 1    
    80   41  107 1    
    81   41  108 1    
    82   41  109 1    
    83   42   43 2    
    84   42   44 am   BACKBONE|DICT|INTERRES
    85   44   45 1    
    86   44  110 1    
    87   45   46 1    
    88   45   47 1    
    89   45  111 1    
    90   46  112 1    
    91   46  113 1    
    92   46  114 1    
    93   47   48 2    
    94   47   49 am   BACKBONE|DICT|INTERRES
    95   49   50 1    
    96   49  115 1    
    97   50   51 1    
    98   50   52 1    
    99   50  116 1    
   100   51  117 1    
   101   51  118 1    
   102   51  119 1    
   103   52   53 2    
   104   52   54 am   BACKBONE|DICT|INTERRES
   105   54   55 1    
   106   54  120 1    
   107   55   56 1    
   108   55   57 1    
   109   55  121 1    
   110   56  122 1    
   111   56  123 1    
   112   56  124 1    
   113   57   58 2    
   114   57   59 am   BACKBONE|DICT|INTERRES
   115   59   60 1    
   116   59  125 1    
   117   60   61 1    
   118   60   62 1    
   119   60  126 1    
   120   61  127 1    
   121   61  128 1    
   122   61  129 1    
   123   62   63 2    
   124   62   64 am   BACKBONE|DICT|INTERRES
   125   64   65 1    
   126   64  130 1    
   127   65   66 1    
   128   65   69 1    
   129   65  131 1    
   130   66   67 am   BACKBONE|DICT|INTERRES
   131   66   68 2    
   132   67  132 1    
   133   67  133 1    
   134   69   70 1    
   135   69  134 1    
   136   69  135 1    
   137   70   71 1    
   138   71  136 1    
   139   71  137 1    
@<TRIPOS>SUBSTRUCTURE
     1 UNK         1 GROUP             0       ****    0 ROOT    
