@<TRIPOS>MOLECULE
3R136
137   139    1
SMALL
USER_CHARGES


@<TRIPOS>ATOM
      1 CA         29.7230   29.8473   -3.7201 C.3       0 UNK        -0.1979 
      2 C          28.8595   28.8986   -2.9023 C.2       0 UNK         0.4864 
      3 O          27.6398   29.0660   -2.8612 O.2       0 UNK        -0.5359 
      4 N          29.4830   27.9113   -2.2468 N.am      1 UNK        -0.4318 
      5 CA         28.8035   26.8777   -1.4583 C.3       1 UNK         0.0824 
      6 C6         29.7598   26.1754   -0.4649 C.3       12 UNK        -0.0944 
      7 S7         30.5191   27.3499    0.7078 S.3       12 UNK        -0.2672 
      8 C8         32.1440   26.5866    1.0187 C.3       12 UNK         0.0333 
      9 C9         32.1523   25.7075    2.2631 C.ar      12 UNK        -0.0807 
     10 C10        33.0867   25.9504    3.2748 C.ar      12 UNK        -0.0894 
     11 C11        33.1473   25.1264    4.4018 C.ar      12 UNK        -0.0804 
     12 C12        32.2318   24.0782    4.5341 C.ar      12 UNK        -0.0824 
     13 C13        31.2745   23.8371    3.5443 C.ar      12 UNK        -0.0762 
     14 C14        31.2632   24.6352    2.3962 C.ar      12 UNK        -0.0782 
     15 C15        30.2665   22.7053    3.7267 C.3       12 UNK         0.0230 
     16 S16        28.5280   23.1988    3.4448 S.3       12 UNK        -0.2608 
     17 C17        28.3676   24.7433    4.4063 C.3       12 UNK        -0.0989 
     18 CA         27.9674   25.9154    3.4728 C.3       5 UNK         0.0716 
     19 N          26.5339   25.8927    3.1797 N.am      5 UNK        -0.4135 
     20 C          25.9827   25.8660    1.9645 C.2       4 UNK         0.5031 
     21 O          26.6147   25.8144    0.9052 O.2       4 UNK        -0.5229 
     22 CA         24.4508   25.9607    1.9202 C.3       4 UNK         0.0329 
     23 CB         24.0165   27.4024    1.6090 C.3       4 UNK        -0.2001 
     24 N          23.9398   25.0703    0.8823 N.am      4 UNK        -0.4303 
     25 C          23.6982   23.7622    1.0480 C.2       3 UNK         0.5044 
     26 O          23.6936   23.1939    2.1406 O.2       3 UNK        -0.5152 
     27 CA         23.4513   22.9449   -0.2350 C.3       3 UNK         0.0319 
     28 CB         21.9587   22.9441   -0.6026 C.3       3 UNK        -0.2001 
     29 N          24.2362   23.4513   -1.3660 N.am      3 UNK        -0.4354 
     30 C          25.5729   23.3775   -1.4471 C.2       2 UNK         0.4964 
     31 O          26.2703   22.7268   -0.6679 O.2       2 UNK        -0.5047 
     32 CA         26.2594   24.2034   -2.5411 C.3       2 UNK         0.0288 
     33 CB         25.2962   24.8565   -3.5594 C.3       2 UNK        -0.2113 
     34 N          27.0535   25.2260   -1.8658 N.am      2 UNK        -0.4145 
     35 C          28.1207   25.8449   -2.3772 C.2       1 UNK         0.5006 
     36 O          28.5794   25.6117   -3.4999 O.2       1 UNK        -0.5103 
     37 C          28.3143   27.2785    4.0955 C.2       5 UNK         0.5055 
     38 O          27.4245   27.9723    4.5944 O.2       5 UNK        -0.5220 
     39 N          29.6057   27.6353    4.0337 N.am      6 UNK        -0.4450 
     40 CA         30.2158   28.9032    4.4654 C.3       6 UNK         0.0367 
     41 CB         29.9296   29.1992    5.9526 C.3       6 UNK        -0.1929 
     42 C          29.8760   30.1167    3.5751 C.2       6 UNK         0.5070 
     43 O          30.3254   31.2235    3.8733 O.2       6 UNK        -0.5237 
     44 N          29.1291   29.9080    2.4817 N.am      7 UNK        -0.4739 
     45 CA         28.7416   30.9398    1.5136 C.3       7 UNK         0.0276 
     46 CB         27.6783   30.3665    0.5654 C.3       7 UNK        -0.1927 
     47 C          29.9317   31.5086    0.7198 C.2       7 UNK         0.5013 
     48 O          29.9045   32.6822    0.3498 O.2       7 UNK        -0.5193 
     49 N          30.9651   30.6818    0.5125 N.am      8 UNK        -0.4253 
     50 CA         32.2537   31.0601   -0.0730 C.3       8 UNK         0.0242 
     51 CB         32.6953   29.9682   -1.0646 C.3       8 UNK        -0.2000 
     52 C          33.3225   31.3199    1.0094 C.2       8 UNK         0.4948 
     53 O          34.5140   31.2215    0.7108 O.2       8 UNK        -0.5275 
     54 N          32.8879   31.6465    2.2369 N.am      9 UNK        -0.4246 
     55 CA         33.6950   31.8708    3.4395 C.3       9 UNK         0.0261 
     56 CB         34.6591   33.0676    3.2619 C.3       9 UNK        -0.1959 
     57 C          34.3644   30.5725    3.9315 C.2       9 UNK         0.5033 
     58 O          33.7559   29.5041    3.8300 O.2       9 UNK        -0.5390 
     59 N          35.5632   30.6917    4.5222 N.am      10 UNK        -0.4215 
     60 CA         36.3791   29.6573    5.1799 C.3       10 UNK         0.0240 
     61 CB         36.7605   28.5187    4.2119 C.3       10 UNK        -0.1982 
     62 C          35.7598   29.1162    6.4819 C.2       10 UNK         0.4970 
     63 O          36.4170   29.1523    7.5223 O.2       10 UNK        -0.4916 
     64 N          34.5066   28.6612    6.4046 N.am      11 UNK        -0.4279 
     65 CA         33.6723   28.2355    7.5381 C.3       11 UNK         0.1003 
     66 C          32.8840   29.4038    8.2018 C.2       11 UNK         0.5709 
     67 N          32.9953   30.6416    7.7328 N.am      11 UNK        -0.7358 
     68 O          32.1700   29.1875    9.1777 O.2       11 UNK        -0.4999 
     69 C69        32.7453   27.0592    7.1258 C.3       12 UNK        -0.0954 
     70 S70        33.6231   25.4637    7.1450 S.3       12 UNK        -0.2268 
     71 C71        34.2444   25.3335    5.4388 C.3       12 UNK         0.0203 
     72 H72        30.7088   29.4279   -3.9193 H         1 UNK         0.0888 
     73 H73        29.2495   30.0559   -4.6791 H         1 UNK         0.0888 
     74 H74        29.8497   30.7905   -3.1891 H         1 UNK         0.0888 
     75 H75        30.4823   27.8030   -2.3337 H         1 UNK         0.3017 
     76 H76        28.0164   27.3632   -0.8778 H         1 UNK         0.0873 
     77 H77        29.2138   25.4289    0.1135 H         1 UNK         0.0745 
     78 H78        30.5388   25.6370   -1.0074 H         1 UNK         0.0745 
     79 H79        32.4726   26.0057    0.1565 H         1 UNK         0.0705 
     80 H80        32.8702   27.3927    1.1322 H         1 UNK         0.0705 
     81 H81        33.7900   26.7658    3.1701 H         1 UNK         0.1334 
     82 H82        32.2729   23.4448    5.4100 H         1 UNK         0.1417 
     83 H83        30.5472   24.4251    1.6160 H         1 UNK         0.1562 
     84 H84        30.3391   22.2876    4.7321 H         1 UNK         0.0748 
     85 H85        30.5175   21.8957    3.0403 H         1 UNK         0.0748 
     86 H86        29.3041   24.9432    4.9295 H         1 UNK         0.0940 
     87 H87        27.6245   24.5962    5.1922 H         1 UNK         0.0940 
     88 H88        28.5367   25.8437    2.5440 H         1 UNK         0.0703 
     89 H89        25.9346   26.0305    3.9810 H         1 UNK         0.3081 
     90 H90        24.0355   25.6700    2.8878 H         1 UNK         0.0719 
     91 H91        24.4170   27.7501    0.6555 H         1 UNK         0.0809 
     92 H92        22.9306   27.4897    1.5689 H         1 UNK         0.0809 
     93 H93        24.3687   28.0903    2.3791 H         1 UNK         0.0809 
     94 H94        23.9532   25.4331   -0.0587 H         1 UNK         0.2990 
     95 H95        23.7569   21.9148   -0.0389 H         1 UNK         0.0690 
     96 H96        21.3568   22.5503    0.2177 H         1 UNK         0.0788 
     97 H97        21.7652   22.3180   -1.4738 H         1 UNK         0.0788 
     98 H98        21.5934   23.9483   -0.8217 H         1 UNK         0.0788 
     99 H99        23.7407   23.9849   -2.0659 H         1 UNK         0.2993 
    100 H100       26.9281   23.5246   -3.0751 H         1 UNK         0.0949 
    101 H101       25.8502   25.3644   -4.3492 H         1 UNK         0.0767 
    102 H102       24.6684   24.1100   -4.0479 H         1 UNK         0.0767 
    103 H103       24.6452   25.5972   -3.0931 H         1 UNK         0.0767 
    104 H104       26.8073   25.4082   -0.8918 H         1 UNK         0.3013 
    105 H105       30.2483   26.9943    3.5849 H         1 UNK         0.3121 
    106 H106       31.2909   28.7540    4.3636 H         1 UNK         0.0774 
    107 H107       30.5494   30.0223    6.3083 H         1 UNK         0.0815 
    108 H108       28.8925   29.4914    6.1175 H         1 UNK         0.0815 
    109 H109       30.1368   28.3365    6.5840 H         1 UNK         0.0815 
    110 H110       28.8136   28.9674    2.2959 H         1 UNK         0.2987 
    111 H111       28.2953   31.7679    2.0687 H         1 UNK         0.0949 
    112 H112       28.0628   29.5174    0.0025 H         1 UNK         0.0806 
    113 H113       26.7937   30.0359    1.1101 H         1 UNK         0.0806 
    114 H114       27.3531   31.1151   -0.1584 H         1 UNK         0.0806 
    115 H115       30.8868   29.7312    0.8513 H         1 UNK         0.3010 
    116 H116       32.1438   31.9905   -0.6340 H         1 UNK         0.0829 
    117 H117       31.9243   29.7728   -1.8070 H         1 UNK         0.0813 
    118 H118       33.5929   30.2699   -1.6059 H         1 UNK         0.0813 
    119 H119       32.9213   29.0300   -0.5599 H         1 UNK         0.0813 
    120 H120       31.8882   31.6485    2.4011 H         1 UNK         0.3038 
    121 H121       32.9817   32.1442    4.2185 H         1 UNK         0.0769 
    122 H122       35.4839   32.8355    2.5869 H         1 UNK         0.0811 
    123 H123       35.0866   33.3814    4.2147 H         1 UNK         0.0811 
    124 H124       34.1360   33.9331    2.8550 H         1 UNK         0.0811 
    125 H125       35.9540   31.6231    4.5648 H         1 UNK         0.3204 
    126 H126       37.3069   30.1560    5.4655 H         1 UNK         0.0748 
    127 H127       37.4132   27.7944    4.7010 H         1 UNK         0.0771 
    128 H128       35.8899   27.9744    3.8476 H         1 UNK         0.0771 
    129 H129       37.2965   28.9038    3.3445 H         1 UNK         0.0771 
    130 H130       34.0471   28.7257    5.4992 H         1 UNK         0.2980 
    131 H131       34.3308   27.8759    8.3309 H         1 UNK         0.0545 
    132 H132       32.4865   31.3849    8.1845 H         1 UNK         0.3459 
    133 H133       33.5977   30.8414    6.9532 H         1 UNK         0.3459 
    134 H134       31.9102   26.9480    7.8196 H         1 UNK         0.0616 
    135 H135       32.2988   27.2301    6.1454 H         1 UNK         0.0616 
    136 H136       34.9278   24.4851    5.3877 H         1 UNK         0.0634 
    137 H137       34.8416   26.2152    5.2084 H         1 UNK         0.0634 
@<TRIPOS>BOND
     1    1    2 1    
     2    1   72 1    
     3    1   73 1    
     4    1   74 1    
     5    2    3 2    
     6    2    4 am   BACKBONE|DICT|INTERRES
     7    4    5 1    
     8    4   75 1    
     9    5    6 1    
    10    5   35 1    
    11    5   76 1    
    12    6    7 1    
    13    6   77 1    
    14    6   78 1    
    15    7    8 1    
    16    8    9 1    
    17    8   79 1    
    18    8   80 1    
    19    9   10 ar   
    20    9   14 ar   
    21   10   11 ar   
    22   10   81 1    
    23   11   12 ar   
    24   11   71 1    
    25   12   13 ar   
    26   12   82 1    
    27   13   14 ar   
    28   13   15 1    
    29   14   83 1    
    30   15   16 1    
    31   15   84 1    
    32   15   85 1    
    33   16   17 1    
    34   17   18 1    
    35   17   86 1    
    36   17   87 1    
    37   18   19 1    
    38   18   37 1    
    39   18   88 1    
    40   19   20 am   BACKBONE|DICT|INTERRES
    41   19   89 1    
    42   20   21 2    
    43   20   22 1    
    44   22   23 1    
    45   22   24 1    
    46   22   90 1    
    47   23   91 1    
    48   23   92 1    
    49   23   93 1    
    50   24   25 am   BACKBONE|DICT|INTERRES
    51   24   94 1    
    52   25   26 2    
    53   25   27 1    
    54   27   28 1    
    55   27   29 1    
    56   27   95 1    
    57   28   96 1    
    58   28   97 1    
    59   28   98 1    
    60   29   30 am   BACKBONE|DICT|INTERRES
    61   29   99 1    
    62   30   31 2    
    63   30   32 1    
    64   32   33 1    
    65   32   34 1    
    66   32  100 1    
    67   33  101 1    
    68   33  102 1    
    69   33  103 1    
    70   34   35 am   BACKBONE|DICT|INTERRES
    71   34  104 1    
    72   35   36 2    
    73   37   38 2    
    74   37   39 am   BACKBONE|DICT|INTERRES
    75   39   40 1    
    76   39  105 1    
    77   40   41 1    
    78   40   42 1    
    79   40  106 1    
    80   41  107 1    
    81   41  108 1    
    82   41  109 1    
    83   42   43 2    
    84   42   44 am   BACKBONE|DICT|INTERRES
    85   44   45 1    
    86   44  110 1    
    87   45   46 1    
    88   45   47 1    
    89   45  111 1    
    90   46  112 1    
    91   46  113 1    
    92   46  114 1    
    93   47   48 2    
    94   47   49 am   BACKBONE|DICT|INTERRES
    95   49   50 1    
    96   49  115 1    
    97   50   51 1    
    98   50   52 1    
    99   50  116 1    
   100   51  117 1    
   101   51  118 1    
   102   51  119 1    
   103   52   53 2    
   104   52   54 am   BACKBONE|DICT|INTERRES
   105   54   55 1    
   106   54  120 1    
   107   55   56 1    
   108   55   57 1    
   109   55  121 1    
   110   56  122 1    
   111   56  123 1    
   112   56  124 1    
   113   57   58 2    
   114   57   59 am   BACKBONE|DICT|INTERRES
   115   59   60 1    
   116   59  125 1    
   117   60   61 1    
   118   60   62 1    
   119   60  126 1    
   120   61  127 1    
   121   61  128 1    
   122   61  129 1    
   123   62   63 2    
   124   62   64 am   BACKBONE|DICT|INTERRES
   125   64   65 1    
   126   64  130 1    
   127   65   66 1    
   128   65   69 1    
   129   65  131 1    
   130   66   67 am   BACKBONE|DICT|INTERRES
   131   66   68 2    
   132   67  132 1    
   133   67  133 1    
   134   69   70 1    
   135   69  134 1    
   136   69  135 1    
   137   70   71 1    
   138   71  136 1    
   139   71  137 1    
@<TRIPOS>SUBSTRUCTURE
     1 UNK         1 GROUP             0       ****    0 ROOT    
