@<TRIPOS>MOLECULE
3R136
137   139    1
SMALL
USER_CHARGES


@<TRIPOS>ATOM
      1 CA         25.2248   27.5844    6.4099 C.3       0 UNK        -0.1979 
      2 C          25.5614   26.3646    5.5644 C.2       0 UNK         0.4864 
      3 O          24.9912   25.2935    5.7794 O.2       0 UNK        -0.5359 
      4 N          26.4866   26.5170    4.6109 N.am      1 UNK        -0.4318 
      5 CA         26.9074   25.4838    3.6639 C.3       1 UNK         0.0824 
      6 C6         28.2523   25.8414    2.9801 C.3       12 UNK        -0.0944 
      7 S7         29.6078   26.0125    4.1928 S.3       12 UNK        -0.2672 
      8 C8         30.8450   24.8310    3.5748 C.3       12 UNK         0.0333 
      9 C9         31.7018   25.4264    2.4652 C.ar      12 UNK        -0.0807 
     10 C10        32.8276   26.1908    2.7869 C.ar      12 UNK        -0.0894 
     11 C11        33.6616   26.6842    1.7793 C.ar      12 UNK        -0.0804 
     12 C12        33.3544   26.4244    0.4409 C.ar      12 UNK        -0.0824 
     13 C13        32.2188   25.6811    0.1025 C.ar      12 UNK        -0.0762 
     14 C14        31.4000   25.1807    1.1219 C.ar      12 UNK        -0.0782 
     15 C15        31.8903   25.3896   -1.3599 C.3       12 UNK         0.0230 
     16 S16        31.8314   26.8877   -2.4017 S.3       12 UNK        -0.2608 
     17 C17        30.5869   27.9018   -1.5373 C.3       12 UNK        -0.0989 
     18 CA         29.4502   28.4006   -2.4633 C.3       5 UNK         0.0716 
     19 N          28.7222   27.2969   -3.0962 N.am      5 UNK        -0.4135 
     20 C          27.7355   27.4304   -3.9932 C.2       4 UNK         0.5031 
     21 O          27.4177   28.5060   -4.5028 O.2       4 UNK        -0.5229 
     22 CA         26.9461   26.1639   -4.3834 C.3       4 UNK         0.0329 
     23 CB         27.3282   25.7167   -5.8045 C.3       4 UNK        -0.2001 
     24 N          27.0654   25.0118   -3.4769 N.am      4 UNK        -0.4303 
     25 C          26.8112   24.9898   -2.1604 C.2       3 UNK         0.5044 
     26 O          26.5601   25.9921   -1.4857 O.2       3 UNK        -0.5152 
     27 CA         26.9308   23.6112   -1.4867 C.3       3 UNK         0.0319 
     28 CB         28.4074   23.2513   -1.2604 C.3       3 UNK        -0.2001 
     29 N          26.2395   23.5555   -0.1991 N.am      3 UNK        -0.4354 
     30 C          24.9112   23.5964   -0.0256 C.2       2 UNK         0.4964 
     31 O          24.0987   23.6114   -0.9515 O.2       2 UNK        -0.5047 
     32 CA         24.3966   23.5961    1.4265 C.3       2 UNK         0.0288 
     33 CB         23.8602   22.2054    1.8059 C.3       2 UNK        -0.2113 
     34 N          25.4123   23.9991    2.4066 N.am      2 UNK        -0.4145 
     35 C          25.8003   25.2651    2.6151 C.2       1 UNK         0.5006 
     36 O          25.3341   26.2343    2.0108 O.2       1 UNK        -0.5103 
     37 C          28.5234   29.3341   -1.6551 C.2       5 UNK         0.5055 
     38 O          28.7716   30.5404   -1.6289 O.2       5 UNK        -0.5220 
     39 N          27.5050   28.7562   -0.9911 N.am      6 UNK        -0.4450 
     40 CA         26.5591   29.4134   -0.0761 C.3       6 UNK         0.0367 
     41 CB         25.5973   30.3301   -0.8608 C.3       6 UNK        -0.1929 
     42 C          27.2456   30.1357    1.1057 C.2       6 UNK         0.5070 
     43 O          26.7586   31.1695    1.5681 O.2       6 UNK        -0.5237 
     44 N          28.3805   29.5854    1.5571 N.am      7 UNK        -0.4739 
     45 CA         29.1848   30.0872    2.6716 C.3       7 UNK         0.0276 
     46 CB         30.5859   29.4542    2.5799 C.3       7 UNK        -0.1927 
     47 C          28.5318   29.7920    4.0335 C.2       7 UNK         0.5013 
     48 O          27.5985   28.9919    4.1149 O.2       7 UNK        -0.5193 
     49 N          29.0526   30.4241    5.0891 N.am      8 UNK        -0.4253 
     50 CA         28.6409   30.2010    6.4772 C.3       8 UNK         0.0242 
     51 CB         27.4599   31.1264    6.8335 C.3       8 UNK        -0.2000 
     52 C          29.8424   30.3577    7.4241 C.2       8 UNK         0.4948 
     53 O          29.6888   30.8695    8.5345 O.2       8 UNK        -0.5275 
     54 N          31.0246   29.9340    6.9629 N.am      9 UNK        -0.4246 
     55 CA         32.3049   30.0194    7.6579 C.3       9 UNK         0.0261 
     56 CB         32.8290   31.4703    7.6273 C.3       9 UNK        -0.1959 
     57 C          33.2909   29.0659    6.9715 C.2       9 UNK         0.5033 
     58 O          33.0010   28.5671    5.8790 O.2       9 UNK        -0.5390 
     59 N          34.4445   28.8478    7.6152 N.am      10 UNK        -0.4215 
     60 CA         35.5784   28.1042    7.0611 C.3       10 UNK         0.0240 
     61 CB         36.6030   27.8443    8.1781 C.3       10 UNK        -0.1982 
     62 C          36.2348   28.8580    5.8905 C.2       10 UNK         0.4970 
     63 O          36.1696   30.0887    5.8355 O.2       10 UNK        -0.4916 
     64 N          36.8690   28.1016    4.9887 N.am      11 UNK        -0.4279 
     65 CA         37.4797   28.6139    3.7505 C.3       11 UNK         0.1003 
     66 C          38.7797   29.4492    3.9455 C.2       11 UNK         0.5709 
     67 N          39.3968   29.4591    5.1212 N.am      11 UNK        -0.7358 
     68 O          39.2336   30.1042    3.0101 O.2       11 UNK        -0.4999 
     69 C69        37.7038   27.4863    2.7049 C.3       12 UNK        -0.0954 
     70 S70        36.2990   26.3443    2.4590 S.3       12 UNK        -0.2268 
     71 C71        34.9092   27.4735    2.1384 C.3       12 UNK         0.0203 
     72 H72        25.7474   28.4753    6.0624 H         1 UNK         0.0888 
     73 H73        24.1546   27.7850    6.3711 H         1 UNK         0.0888 
     74 H74        25.5036   27.4104    7.4487 H         1 UNK         0.0888 
     75 H75        26.9037   27.4367    4.4556 H         1 UNK         0.3017 
     76 H76        27.0480   24.5561    4.2231 H         1 UNK         0.0873 
     77 H77        28.1675   26.7800    2.4299 H         1 UNK         0.0745 
     78 H78        28.5179   25.0818    2.2436 H         1 UNK         0.0745 
     79 H79        31.4874   24.5399    4.4073 H         1 UNK         0.0705 
     80 H80        30.3554   23.9146    3.2420 H         1 UNK         0.0705 
     81 H81        33.0668   26.3855    3.8242 H         1 UNK         0.1334 
     82 H82        34.0023   26.7978   -0.3406 H         1 UNK         0.1417 
     83 H83        30.5359   24.5824    0.8749 H         1 UNK         0.1562 
     84 H84        30.9375   24.8685   -1.4494 H         1 UNK         0.0748 
     85 H85        32.6468   24.7138   -1.7610 H         1 UNK         0.0748 
     86 H86        31.1163   28.7475   -1.0925 H         1 UNK         0.0940 
     87 H87        30.1712   27.3378   -0.7003 H         1 UNK         0.0940 
     88 H88        29.8943   28.9963   -3.2637 H         1 UNK         0.0703 
     89 H89        28.9336   26.3705   -2.7599 H         1 UNK         0.3081 
     90 H90        25.8921   26.4488   -4.3901 H         1 UNK         0.0719 
     91 H91        28.3642   25.3790   -5.8555 H         1 UNK         0.0809 
     92 H92        26.6906   24.9035   -6.1519 H         1 UNK         0.0809 
     93 H93        27.2177   26.5355   -6.5173 H         1 UNK         0.0809 
     94 H94        27.2961   24.1346   -3.9217 H         1 UNK         0.2990 
     95 H95        26.4812   22.8654   -2.1459 H         1 UNK         0.0690 
     96 H96        28.5116   22.2577   -0.8238 H         1 UNK         0.0788 
     97 H97        28.8877   23.9635   -0.5912 H         1 UNK         0.0788 
     98 H98        28.9666   23.2491   -2.1970 H         1 UNK         0.0788 
     99 H99        26.8207   23.5564    0.6240 H         1 UNK         0.2993 
    100 H100       23.5680   24.3065    1.4747 H         1 UNK         0.0949 
    101 H101       23.4266   22.2067    2.8063 H         1 UNK         0.0767 
    102 H102       23.0766   21.8875    1.1163 H         1 UNK         0.0767 
    103 H103       24.6445   21.4477    1.7791 H         1 UNK         0.0767 
    104 H104       25.8247   23.2606    2.9592 H         1 UNK         0.3013 
    105 H105       27.3480   27.7588   -1.1204 H         1 UNK         0.3121 
    106 H106       25.9640   28.6132    0.3676 H         1 UNK         0.0774 
    107 H107       24.8084   30.7155   -0.2138 H         1 UNK         0.0815 
    108 H108       26.1164   31.1885   -1.2881 H         1 UNK         0.0815 
    109 H109       25.1129   29.7911   -1.6749 H         1 UNK         0.0815 
    110 H110       28.6841   28.7210    1.1375 H         1 UNK         0.2987 
    111 H111       29.2784   31.1706    2.5688 H         1 UNK         0.0949 
    112 H112       30.5451   28.3672    2.6526 H         1 UNK         0.0806 
    113 H113       31.0723   29.7034    1.6366 H         1 UNK         0.0806 
    114 H114       31.2401   29.8063    3.3784 H         1 UNK         0.0806 
    115 H115       29.8152   31.0741    4.9527 H         1 UNK         0.3010 
    116 H116       28.3097   29.1662    6.5911 H         1 UNK         0.0829 
    117 H117       26.6158   30.9702    6.1617 H         1 UNK         0.0813 
    118 H118       27.1034   30.9369    7.8467 H         1 UNK         0.0813 
    119 H119       27.7440   32.1776    6.7758 H         1 UNK         0.0813 
    120 H120       31.0817   29.4460    6.0758 H         1 UNK         0.3038 
    121 H121       32.1716   29.6928    8.6914 H         1 UNK         0.0769 
    122 H122       32.9740   31.8214    6.6048 H         1 UNK         0.0811 
    123 H123       33.7877   31.5582    8.1395 H         1 UNK         0.0811 
    124 H124       32.1411   32.1564    8.1215 H         1 UNK         0.0811 
    125 H125       34.6058   29.3239    8.4908 H         1 UNK         0.3204 
    126 H126       35.2067   27.1453    6.6929 H         1 UNK         0.0748 
    127 H127       36.1578   27.2881    9.0035 H         1 UNK         0.0771 
    128 H128       37.4439   27.2543    7.8110 H         1 UNK         0.0771 
    129 H129       37.0081   28.7743    8.5795 H         1 UNK         0.0771 
    130 H130       36.8974   27.1000    5.1103 H         1 UNK         0.2980 
    131 H131       36.7624   29.3131    3.3172 H         1 UNK         0.0545 
    132 H132       40.2352   30.0069    5.2343 H         1 UNK         0.3459 
    133 H133       39.0299   28.9298    5.8951 H         1 UNK         0.3459 
    134 H134       38.5619   26.8758    2.9924 H         1 UNK         0.0616 
    135 H135       37.9542   27.9184    1.7342 H         1 UNK         0.0616 
    136 H136       34.7132   28.0836    3.0213 H         1 UNK         0.0634 
    137 H137       35.1732   28.1597    1.3321 H         1 UNK         0.0634 
@<TRIPOS>BOND
     1    1    2 1    
     2    1   72 1    
     3    1   73 1    
     4    1   74 1    
     5    2    3 2    
     6    2    4 am   BACKBONE|DICT|INTERRES
     7    4    5 1    
     8    4   75 1    
     9    5    6 1    
    10    5   35 1    
    11    5   76 1    
    12    6    7 1    
    13    6   77 1    
    14    6   78 1    
    15    7    8 1    
    16    8    9 1    
    17    8   79 1    
    18    8   80 1    
    19    9   10 ar   
    20    9   14 ar   
    21   10   11 ar   
    22   10   81 1    
    23   11   12 ar   
    24   11   71 1    
    25   12   13 ar   
    26   12   82 1    
    27   13   14 ar   
    28   13   15 1    
    29   14   83 1    
    30   15   16 1    
    31   15   84 1    
    32   15   85 1    
    33   16   17 1    
    34   17   18 1    
    35   17   86 1    
    36   17   87 1    
    37   18   19 1    
    38   18   37 1    
    39   18   88 1    
    40   19   20 am   BACKBONE|DICT|INTERRES
    41   19   89 1    
    42   20   21 2    
    43   20   22 1    
    44   22   23 1    
    45   22   24 1    
    46   22   90 1    
    47   23   91 1    
    48   23   92 1    
    49   23   93 1    
    50   24   25 am   BACKBONE|DICT|INTERRES
    51   24   94 1    
    52   25   26 2    
    53   25   27 1    
    54   27   28 1    
    55   27   29 1    
    56   27   95 1    
    57   28   96 1    
    58   28   97 1    
    59   28   98 1    
    60   29   30 am   BACKBONE|DICT|INTERRES
    61   29   99 1    
    62   30   31 2    
    63   30   32 1    
    64   32   33 1    
    65   32   34 1    
    66   32  100 1    
    67   33  101 1    
    68   33  102 1    
    69   33  103 1    
    70   34   35 am   BACKBONE|DICT|INTERRES
    71   34  104 1    
    72   35   36 2    
    73   37   38 2    
    74   37   39 am   BACKBONE|DICT|INTERRES
    75   39   40 1    
    76   39  105 1    
    77   40   41 1    
    78   40   42 1    
    79   40  106 1    
    80   41  107 1    
    81   41  108 1    
    82   41  109 1    
    83   42   43 2    
    84   42   44 am   BACKBONE|DICT|INTERRES
    85   44   45 1    
    86   44  110 1    
    87   45   46 1    
    88   45   47 1    
    89   45  111 1    
    90   46  112 1    
    91   46  113 1    
    92   46  114 1    
    93   47   48 2    
    94   47   49 am   BACKBONE|DICT|INTERRES
    95   49   50 1    
    96   49  115 1    
    97   50   51 1    
    98   50   52 1    
    99   50  116 1    
   100   51  117 1    
   101   51  118 1    
   102   51  119 1    
   103   52   53 2    
   104   52   54 am   BACKBONE|DICT|INTERRES
   105   54   55 1    
   106   54  120 1    
   107   55   56 1    
   108   55   57 1    
   109   55  121 1    
   110   56  122 1    
   111   56  123 1    
   112   56  124 1    
   113   57   58 2    
   114   57   59 am   BACKBONE|DICT|INTERRES
   115   59   60 1    
   116   59  125 1    
   117   60   61 1    
   118   60   62 1    
   119   60  126 1    
   120   61  127 1    
   121   61  128 1    
   122   61  129 1    
   123   62   63 2    
   124   62   64 am   BACKBONE|DICT|INTERRES
   125   64   65 1    
   126   64  130 1    
   127   65   66 1    
   128   65   69 1    
   129   65  131 1    
   130   66   67 am   BACKBONE|DICT|INTERRES
   131   66   68 2    
   132   67  132 1    
   133   67  133 1    
   134   69   70 1    
   135   69  134 1    
   136   69  135 1    
   137   70   71 1    
   138   71  136 1    
   139   71  137 1    
@<TRIPOS>SUBSTRUCTURE
     1 UNK         1 GROUP             0       ****    0 ROOT    
