@<TRIPOS>MOLECULE
3R136
137   139    1
SMALL
USER_CHARGES


@<TRIPOS>ATOM
      1 CA         26.7242   22.0913    2.7177 C.3       0 UNK        -0.1979 
      2 C          27.2515   21.4487    1.4432 C.2       0 UNK         0.4864 
      3 O          26.4608   21.0551    0.5849 O.2       0 UNK        -0.5359 
      4 N          28.5812   21.3412    1.3088 N.am      1 UNK        -0.4318 
      5 CA         29.2675   20.7931    0.1315 C.3       1 UNK         0.0824 
      6 C6         30.7098   20.3223    0.4668 C.3       12 UNK        -0.0944 
      7 S7         31.8271   21.6486    1.0480 S.3       12 UNK        -0.2672 
      8 C8         31.9785   21.3044    2.8325 C.3       12 UNK         0.0333 
      9 C9         31.9412   22.6070    3.6151 C.ar      12 UNK        -0.0807 
     10 C10        33.1130   23.2044    4.0906 C.ar      12 UNK        -0.0894 
     11 C11        33.0585   24.4403    4.7462 C.ar      12 UNK        -0.0804 
     12 C12        31.8273   25.0853    4.9086 C.ar      12 UNK        -0.0824 
     13 C13        30.6530   24.4971    4.4311 C.ar      12 UNK        -0.0762 
     14 C14        30.7173   23.2443    3.8194 C.ar      12 UNK        -0.0782 
     15 C15        29.3183   25.2215    4.5258 C.3       12 UNK         0.0230 
     16 S16        28.5776   25.4060    2.8718 S.3       12 UNK        -0.2608 
     17 C17        27.1451   26.4720    3.2185 C.3       12 UNK        -0.0989 
     18 CA         27.4459   27.9453    2.8632 C.3       5 UNK         0.0716 
     19 N          27.8452   28.1109    1.4602 N.am      5 UNK        -0.4135 
     20 C          28.2732   29.2518    0.9010 C.2       4 UNK         0.5031 
     21 O          28.4350   30.2945    1.5357 O.2       4 UNK        -0.5229 
     22 CA         28.5191   29.2605   -0.6186 C.3       4 UNK         0.0329 
     23 CB         30.0251   29.1787   -0.9140 C.3       4 UNK        -0.2001 
     24 N          27.8266   28.2001   -1.3586 N.am      4 UNK        -0.4303 
     25 C          26.5028   27.9776   -1.3785 C.2       3 UNK         0.5044 
     26 O          25.6860   28.6564   -0.7540 O.2       3 UNK        -0.5152 
     27 CA         26.0107   26.7715   -2.2021 C.3       3 UNK         0.0319 
     28 CB         25.4495   27.2407   -3.5538 C.3       3 UNK        -0.2001 
     29 N          27.0398   25.7482   -2.4338 N.am      3 UNK        -0.4354 
     30 C          27.5938   24.9944   -1.4739 C.2       2 UNK         0.4964 
     31 O          27.2929   25.0759   -0.2806 O.2       2 UNK        -0.5047 
     32 CA         28.7008   24.0312   -1.9178 C.3       2 UNK         0.0288 
     33 CB         30.0302   24.7800   -2.1250 C.3       2 UNK        -0.2113 
     34 N          28.8745   23.0114   -0.8894 N.am      2 UNK        -0.4145 
     35 C          29.2243   21.7350   -1.0971 C.2       1 UNK         0.5006 
     36 O          29.4986   21.2802   -2.2098 O.2       1 UNK        -0.5103 
     37 C          26.2713   28.8583    3.2760 C.2       5 UNK         0.5055 
     38 O          26.1673   29.1868    4.4580 O.2       5 UNK        -0.5220 
     39 N          25.4578   29.3202    2.3113 N.am      6 UNK        -0.4450 
     40 CA         24.4412   30.3607    2.5091 C.3       6 UNK         0.0367 
     41 CB         23.6108   30.5064    1.2244 C.3       6 UNK        -0.1929 
     42 C          25.0276   31.7265    2.9266 C.2       6 UNK         0.5070 
     43 O          24.3270   32.5098    3.5672 O.2       6 UNK        -0.5237 
     44 N          26.2993   31.9748    2.5841 N.am      7 UNK        -0.4739 
     45 CA         27.0905   33.1370    2.9933 C.3       7 UNK         0.0276 
     46 CB         27.7055   33.7742    1.7335 C.3       7 UNK        -0.1927 
     47 C          28.1780   32.7467    4.0167 C.2       7 UNK         0.5013 
     48 O          29.1218   33.5134    4.2085 O.2       7 UNK        -0.5193 
     49 N          28.0353   31.5676    4.6453 N.am      8 UNK        -0.4253 
     50 CA         28.9428   30.9414    5.6174 C.3       8 UNK         0.0242 
     51 CB         29.1098   31.8171    6.8784 C.3       8 UNK        -0.2000 
     52 C          30.2929   30.4748    5.0307 C.2       8 UNK         0.4948 
     53 O          31.2273   30.2384    5.7993 O.2       8 UNK        -0.5275 
     54 N          30.3595   30.2994    3.7013 N.am      9 UNK        -0.4246 
     55 CA         31.5078   29.8295    2.9161 C.3       9 UNK         0.0261 
     56 CB         31.8410   28.3602    3.2655 C.3       9 UNK        -0.1959 
     57 C          32.7250   30.7773    2.9818 C.2       9 UNK         0.5033 
     58 O          32.5796   31.9529    3.3255 O.2       9 UNK        -0.5390 
     59 N          33.9007   30.2645    2.6014 N.am      10 UNK        -0.4215 
     60 CA         35.1704   30.9930    2.5665 C.3       10 UNK         0.0240 
     61 CB         35.3103   31.7485    1.2286 C.3       10 UNK        -0.1982 
     62 C          36.3328   30.0264    2.8428 C.2       10 UNK         0.4970 
     63 O          37.3434   30.0554    2.1385 O.2       10 UNK        -0.4916 
     64 N          36.1511   29.1608    3.8476 N.am      11 UNK        -0.4279 
     65 CA         37.1042   28.1058    4.2323 C.3       11 UNK         0.1003 
     66 C          38.3490   28.6075    5.0219 C.2       11 UNK         0.5709 
     67 N          38.3992   29.8576    5.4674 N.am      11 UNK        -0.7358 
     68 O          39.2931   27.8478    5.2262 O.2       11 UNK        -0.4999 
     69 C69        36.3962   26.9479    4.9836 C.3       12 UNK        -0.0954 
     70 S70        35.0306   26.2194    4.0208 S.3       12 UNK        -0.2268 
     71 C71        34.3295   25.0943    5.2621 C.3       12 UNK         0.0203 
     72 H72        25.9238   21.4855    3.1417 H         1 UNK         0.0888 
     73 H73        27.4993   22.1990    3.4752 H         1 UNK         0.0888 
     74 H74        26.3233   23.0806    2.4975 H         1 UNK         0.0888 
     75 H75        29.1901   21.6823    2.0355 H         1 UNK         0.3017 
     76 H76        28.7136   19.9013   -0.1706 H         1 UNK         0.0873 
     77 H77        30.6719   19.5249    1.2102 H         1 UNK         0.0745 
     78 H78        31.1660   19.8647   -0.4132 H         1 UNK         0.0745 
     79 H79        31.1690   20.6570    3.1725 H         1 UNK         0.0705 
     80 H80        32.9074   20.7632    3.0186 H         1 UNK         0.0705 
     81 H81        34.0671   22.7196    3.9344 H         1 UNK         0.1334 
     82 H82        31.7897   26.0536    5.3888 H         1 UNK         0.1417 
     83 H83        29.8104   22.7938    3.4494 H         1 UNK         0.1562 
     84 H84        29.4438   26.2081    4.9750 H         1 UNK         0.0748 
     85 H85        28.6420   24.6593    5.1712 H         1 UNK         0.0748 
     86 H86        26.8656   26.3693    4.2693 H         1 UNK         0.0940 
     87 H87        26.2974   26.1015    2.6383 H         1 UNK         0.0940 
     88 H88        28.2995   28.2600    3.4667 H         1 UNK         0.0703 
     89 H89        27.7568   27.2878    0.8786 H         1 UNK         0.3081 
     90 H90        28.1457   30.2143   -0.9964 H         1 UNK         0.0719 
     91 H91        30.4619   28.2525   -0.5374 H         1 UNK         0.0809 
     92 H92        30.2250   29.2348   -1.9842 H         1 UNK         0.0809 
     93 H93        30.5589   30.0077   -0.4478 H         1 UNK         0.0809 
     94 H94        28.4082   27.5833   -1.9057 H         1 UNK         0.2990 
     95 H95        25.1990   26.3070   -1.6381 H         1 UNK         0.0690 
     96 H96        25.0141   26.4120   -4.1126 H         1 UNK         0.0788 
     97 H97        26.2202   27.6986   -4.1752 H         1 UNK         0.0788 
     98 H98        24.6616   27.9823   -3.4129 H         1 UNK         0.0788 
     99 H99        27.3456   25.6247   -3.3890 H         1 UNK         0.2993 
    100 H100       28.3902   23.5599   -2.8531 H         1 UNK         0.0949 
    101 H101       30.8234   24.0977   -2.4317 H         1 UNK         0.0767 
    102 H102       29.9413   25.5399   -2.9021 H         1 UNK         0.0767 
    103 H103       30.3566   25.2791   -1.2112 H         1 UNK         0.0767 
    104 H104       28.5992   23.3054    0.0393 H         1 UNK         0.3013 
    105 H105       25.6042   29.0116    1.3553 H         1 UNK         0.3121 
    106 H106       23.7783   30.0306    3.3117 H         1 UNK         0.0774 
    107 H107       24.2252   30.8285    0.3825 H         1 UNK         0.0815 
    108 H108       22.8187   31.2455    1.3525 H         1 UNK         0.0815 
    109 H109       23.1345   29.5652    0.9497 H         1 UNK         0.0815 
    110 H110       26.8174   31.2669    2.0715 H         1 UNK         0.2987 
    111 H111       26.4534   33.8805    3.4767 H         1 UNK         0.0949 
    112 H112       28.4048   33.0970    1.2413 H         1 UNK         0.0806 
    113 H113       26.9359   34.0451    1.0107 H         1 UNK         0.0806 
    114 H114       28.2512   34.6862    1.9788 H         1 UNK         0.0806 
    115 H115       27.2130   31.0172    4.4235 H         1 UNK         0.3010 
    116 H116       28.4380   30.0265    5.9312 H         1 UNK         0.0829 
    117 H117       29.6902   32.7169    6.6735 H         1 UNK         0.0813 
    118 H118       28.1443   32.1227    7.2814 H         1 UNK         0.0813 
    119 H119       29.6295   31.2719    7.6672 H         1 UNK         0.0813 
    120 H120       29.5472   30.5469    3.1444 H         1 UNK         0.3038 
    121 H121       31.1778   29.8505    1.8780 H         1 UNK         0.0769 
    122 H122       32.3023   28.2720    4.2498 H         1 UNK         0.0811 
    123 H123       32.5233   27.9148    2.5413 H         1 UNK         0.0811 
    124 H124       30.9428   27.7423    3.2636 H         1 UNK         0.0811 
    125 H125       33.9441   29.2913    2.3296 H         1 UNK         0.3204 
    126 H126       35.1867   31.7256    3.3764 H         1 UNK         0.0748 
    127 H127       36.2389   32.3199    1.1947 H         1 UNK         0.0771 
    128 H128       35.3140   31.0640    0.3795 H         1 UNK         0.0771 
    129 H129       34.4935   32.4560    1.0847 H         1 UNK         0.0771 
    130 H130       35.3033   29.2105    4.3928 H         1 UNK         0.2980 
    131 H131       37.5042   27.6837    3.3082 H         1 UNK         0.0545 
    132 H132       39.2139   30.1688    5.9725 H         1 UNK         0.3459 
    133 H133       37.6331   30.4905    5.3050 H         1 UNK         0.3459 
    134 H134       37.1032   26.1487    5.2141 H         1 UNK         0.0616 
    135 H135       36.0037   27.3010    5.9391 H         1 UNK         0.0616 
    136 H136       34.1161   25.6485    6.1775 H         1 UNK         0.0634 
    137 H137       35.0693   24.3358    5.5226 H         1 UNK         0.0634 
@<TRIPOS>BOND
     1    1    2 1    
     2    1   72 1    
     3    1   73 1    
     4    1   74 1    
     5    2    3 2    
     6    2    4 am   BACKBONE|DICT|INTERRES
     7    4    5 1    
     8    4   75 1    
     9    5    6 1    
    10    5   35 1    
    11    5   76 1    
    12    6    7 1    
    13    6   77 1    
    14    6   78 1    
    15    7    8 1    
    16    8    9 1    
    17    8   79 1    
    18    8   80 1    
    19    9   10 ar   
    20    9   14 ar   
    21   10   11 ar   
    22   10   81 1    
    23   11   12 ar   
    24   11   71 1    
    25   12   13 ar   
    26   12   82 1    
    27   13   14 ar   
    28   13   15 1    
    29   14   83 1    
    30   15   16 1    
    31   15   84 1    
    32   15   85 1    
    33   16   17 1    
    34   17   18 1    
    35   17   86 1    
    36   17   87 1    
    37   18   19 1    
    38   18   37 1    
    39   18   88 1    
    40   19   20 am   BACKBONE|DICT|INTERRES
    41   19   89 1    
    42   20   21 2    
    43   20   22 1    
    44   22   23 1    
    45   22   24 1    
    46   22   90 1    
    47   23   91 1    
    48   23   92 1    
    49   23   93 1    
    50   24   25 am   BACKBONE|DICT|INTERRES
    51   24   94 1    
    52   25   26 2    
    53   25   27 1    
    54   27   28 1    
    55   27   29 1    
    56   27   95 1    
    57   28   96 1    
    58   28   97 1    
    59   28   98 1    
    60   29   30 am   BACKBONE|DICT|INTERRES
    61   29   99 1    
    62   30   31 2    
    63   30   32 1    
    64   32   33 1    
    65   32   34 1    
    66   32  100 1    
    67   33  101 1    
    68   33  102 1    
    69   33  103 1    
    70   34   35 am   BACKBONE|DICT|INTERRES
    71   34  104 1    
    72   35   36 2    
    73   37   38 2    
    74   37   39 am   BACKBONE|DICT|INTERRES
    75   39   40 1    
    76   39  105 1    
    77   40   41 1    
    78   40   42 1    
    79   40  106 1    
    80   41  107 1    
    81   41  108 1    
    82   41  109 1    
    83   42   43 2    
    84   42   44 am   BACKBONE|DICT|INTERRES
    85   44   45 1    
    86   44  110 1    
    87   45   46 1    
    88   45   47 1    
    89   45  111 1    
    90   46  112 1    
    91   46  113 1    
    92   46  114 1    
    93   47   48 2    
    94   47   49 am   BACKBONE|DICT|INTERRES
    95   49   50 1    
    96   49  115 1    
    97   50   51 1    
    98   50   52 1    
    99   50  116 1    
   100   51  117 1    
   101   51  118 1    
   102   51  119 1    
   103   52   53 2    
   104   52   54 am   BACKBONE|DICT|INTERRES
   105   54   55 1    
   106   54  120 1    
   107   55   56 1    
   108   55   57 1    
   109   55  121 1    
   110   56  122 1    
   111   56  123 1    
   112   56  124 1    
   113   57   58 2    
   114   57   59 am   BACKBONE|DICT|INTERRES
   115   59   60 1    
   116   59  125 1    
   117   60   61 1    
   118   60   62 1    
   119   60  126 1    
   120   61  127 1    
   121   61  128 1    
   122   61  129 1    
   123   62   63 2    
   124   62   64 am   BACKBONE|DICT|INTERRES
   125   64   65 1    
   126   64  130 1    
   127   65   66 1    
   128   65   69 1    
   129   65  131 1    
   130   66   67 am   BACKBONE|DICT|INTERRES
   131   66   68 2    
   132   67  132 1    
   133   67  133 1    
   134   69   70 1    
   135   69  134 1    
   136   69  135 1    
   137   70   71 1    
   138   71  136 1    
   139   71  137 1    
@<TRIPOS>SUBSTRUCTURE
     1 UNK         1 GROUP             0       ****    0 ROOT    
