@<TRIPOS>MOLECULE
3R136
137   139    1
SMALL
USER_CHARGES


@<TRIPOS>ATOM
      1 CA         30.3881   19.3620   -0.4425 C.3       0 UNK        -0.1979 
      2 C          30.4184   20.4876   -1.4662 C.2       0 UNK         0.4864 
      3 O          30.5179   20.2218   -2.6655 O.2       0 UNK        -0.5359 
      4 N          30.3412   21.7399   -1.0004 N.am      1 UNK        -0.4318 
      5 CA         30.2681   22.9438   -1.8326 C.3       1 UNK         0.0824 
      6 C6         30.8513   24.1814   -1.0987 C.3       12 UNK        -0.0944 
      7 S7         30.0415   24.5840    0.4891 S.3       12 UNK        -0.2672 
      8 C8         31.2902   24.0005    1.6766 C.3       12 UNK         0.0333 
      9 C9         30.8791   24.3279    3.1025 C.ar      12 UNK        -0.0807 
     10 C10        31.4349   25.4304    3.7574 C.ar      12 UNK        -0.0894 
     11 C11        31.0470   25.7505    5.0613 C.ar      12 UNK        -0.0804 
     12 C12        30.1022   24.9540    5.7142 C.ar      12 UNK        -0.0824 
     13 C13        29.5372   23.8491    5.0683 C.ar      12 UNK        -0.0762 
     14 C14        29.9366   23.5351    3.7652 C.ar      12 UNK        -0.0782 
     15 C15        28.4697   23.0161    5.7654 C.3       12 UNK         0.0230 
     16 S16        26.7987   23.3771    5.1273 S.3       12 UNK        -0.2608 
     17 C17        26.6385   25.1596    5.4898 C.3       12 UNK        -0.0989 
     18 CA         26.9784   26.0276    4.2468 C.3       5 UNK         0.0716 
     19 N          26.0522   25.8266    3.1250 N.am      5 UNK        -0.4135 
     20 C          24.7712   26.2129    3.0471 C.2       4 UNK         0.5031 
     21 O          24.1661   26.7802    3.9585 O.2       4 UNK        -0.5229 
     22 CA         24.0626   25.9451    1.7019 C.3       4 UNK         0.0329 
     23 CB         22.6003   26.4301    1.6939 C.3       4 UNK        -0.2001 
     24 N          24.7718   26.5619    0.5743 N.am      4 UNK        -0.4303 
     25 C          25.8823   26.0755    0.0068 C.2       3 UNK         0.5044 
     26 O          26.4412   25.0449    0.3877 O.2       3 UNK        -0.5152 
     27 CA         26.5124   26.9202   -1.1110 C.3       3 UNK         0.0319 
     28 CB         27.5354   27.9043   -0.5198 C.3       3 UNK        -0.2001 
     29 N          27.1827   26.0730   -2.0970 N.am      3 UNK        -0.4354 
     30 C          26.5512   25.3502   -3.0327 C.2       2 UNK         0.4964 
     31 O          25.3325   25.3797   -3.2105 O.2       2 UNK        -0.5047 
     32 CA         27.4170   24.4563   -3.9412 C.3       2 UNK         0.0288 
     33 CB         27.6812   25.1548   -5.2856 C.3       2 UNK        -0.2113 
     34 N          28.6989   24.0707   -3.3414 N.am      2 UNK        -0.4145 
     35 C          28.8306   23.1791   -2.3486 C.2       1 UNK         0.5006 
     36 O          27.8790   22.5682   -1.8529 O.2       1 UNK        -0.5103 
     37 C          27.1673   27.5250    4.5743 C.2       5 UNK         0.5055 
     38 O          27.0942   27.9293    5.7366 O.2       5 UNK        -0.5220 
     39 N          27.3947   28.3201    3.5222 N.am      6 UNK        -0.4450 
     40 CA         27.5962   29.7657    3.5750 C.3       6 UNK         0.0367 
     41 CB         26.2338   30.4873    3.5834 C.3       6 UNK        -0.1929 
     42 C          28.4972   30.1886    2.4063 C.2       6 UNK         0.5070 
     43 O          28.1836   31.1387    1.6888 O.2       6 UNK        -0.5237 
     44 N          29.6045   29.4601    2.2164 N.am      7 UNK        -0.4739 
     45 CA         30.5858   29.6302    1.1383 C.3       7 UNK         0.0276 
     46 CB         31.3487   28.3041    0.9647 C.3       7 UNK        -0.1927 
     47 C          31.5310   30.8349    1.3457 C.2       7 UNK         0.5013 
     48 O          32.7395   30.7159    1.1295 O.2       7 UNK        -0.5193 
     49 N          30.9624   31.9772    1.7563 N.am      8 UNK        -0.4253 
     50 CA         31.6174   33.2616    2.0200 C.3       8 UNK         0.0242 
     51 CB         31.9600   33.9586    0.6827 C.3       8 UNK        -0.2000 
     52 C          32.8109   33.1164    2.9864 C.2       8 UNK         0.4948 
     53 O          32.6303   32.6072    4.0947 O.2       8 UNK        -0.5275 
     54 N          34.0045   33.5387    2.5464 N.am      9 UNK        -0.4246 
     55 CA         35.2588   33.5130    3.3024 C.3       9 UNK         0.0261 
     56 CB         36.3617   34.1904    2.4729 C.3       9 UNK        -0.1959 
     57 C          35.7131   32.1141    3.7555 C.2       9 UNK         0.5033 
     58 O          36.4226   32.0229    4.7585 O.2       9 UNK        -0.5390 
     59 N          35.2840   31.0499    3.0576 N.am      10 UNK        -0.4215 
     60 CA         35.5748   29.6605    3.4313 C.3       10 UNK         0.0240 
     61 CB         35.1861   28.7164    2.2833 C.3       10 UNK        -0.1982 
     62 C          34.8988   29.2260    4.7455 C.2       10 UNK         0.4970 
     63 O          35.3861   28.2905    5.3811 O.2       10 UNK        -0.4916 
     64 N          33.8198   29.9160    5.1378 N.am      11 UNK        -0.4279 
     65 CA         33.1455   29.7555    6.4330 C.3       11 UNK         0.1003 
     66 C          33.6201   30.7856    7.5004 C.2       11 UNK         0.5709 
     67 N          34.6303   31.6101    7.2430 N.am      11 UNK        -0.7358 
     68 O          33.0756   30.8249    8.6013 O.2       11 UNK        -0.4999 
     69 C69        31.5998   29.7471    6.2779 C.3       12 UNK        -0.0954 
     70 S70        30.9600   28.5064    5.1012 S.3       12 UNK        -0.2268 
     71 C71        31.6491   26.9582    5.7604 C.3       12 UNK         0.0203 
     72 H72        31.2938   18.7610   -0.5183 H         1 UNK         0.0888 
     73 H73        30.3167   19.7400    0.5774 H         1 UNK         0.0888 
     74 H74        29.5316   18.7134   -0.6241 H         1 UNK         0.0888 
     75 H75        30.1986   21.8973   -0.0139 H         1 UNK         0.3017 
     76 H76        30.8884   22.7758   -2.7161 H         1 UNK         0.0873 
     77 H77        30.8010   25.0665   -1.7350 H         1 UNK         0.0745 
     78 H78        31.9167   24.0233   -0.9246 H         1 UNK         0.0745 
     79 H79        31.4288   22.9240    1.5689 H         1 UNK         0.0705 
     80 H80        32.2519   24.4618    1.4460 H         1 UNK         0.0705 
     81 H81        32.1634   26.0484    3.2510 H         1 UNK         0.1334 
     82 H82        29.7937   25.2051    6.7199 H         1 UNK         0.1417 
     83 H83        29.4923   22.6898    3.2572 H         1 UNK         0.1562 
     84 H84        28.4882   23.1849    6.8433 H         1 UNK         0.0748 
     85 H85        28.6831   21.9562    5.6197 H         1 UNK         0.0748 
     86 H86        27.2877   25.4032    6.3323 H         1 UNK         0.0940 
     87 H87        25.6221   25.3606    5.8322 H         1 UNK         0.0940 
     88 H88        27.9505   25.7085    3.8718 H         1 UNK         0.0703 
     89 H89        26.4393   25.3673    2.3044 H         1 UNK         0.3081 
     90 H90        24.0504   24.8623    1.5582 H         1 UNK         0.0719 
     91 H91        22.1045   26.1814    0.7554 H         1 UNK         0.0809 
     92 H92        22.5310   27.5095    1.8354 H         1 UNK         0.0809 
     93 H93        22.0278   25.9588    2.4940 H         1 UNK         0.0809 
     94 H94        24.3958   27.4358    0.2345 H         1 UNK         0.2990 
     95 H95        25.7281   27.4898   -1.6146 H         1 UNK         0.0690 
     96 H96        28.0095   28.5021   -1.2985 H         1 UNK         0.0788 
     97 H97        28.3220   27.3861    0.0301 H         1 UNK         0.0788 
     98 H98        27.0552   28.5998    0.1692 H         1 UNK         0.0788 
     99 H99        28.1770   25.9474   -1.9830 H         1 UNK         0.2993 
    100 H100       26.8448   23.5465   -4.1371 H         1 UNK         0.0949 
    101 H101       28.2232   24.5036   -5.9719 H         1 UNK         0.0767 
    102 H102       26.7446   25.4281   -5.7740 H         1 UNK         0.0767 
    103 H103       28.2616   26.0698   -5.1593 H         1 UNK         0.0767 
    104 H104       29.5239   24.5216   -3.7106 H         1 UNK         0.3013 
    105 H105       27.4564   27.9023    2.6047 H         1 UNK         0.3121 
    106 H106       28.1323   30.0225    4.4915 H         1 UNK         0.0774 
    107 H107       26.3630   31.5687    3.6426 H         1 UNK         0.0815 
    108 H108       25.6611   30.2733    2.6803 H         1 UNK         0.0815 
    109 H109       25.6305   30.1873    4.4404 H         1 UNK         0.0815 
    110 H110       29.8272   28.7547    2.9069 H         1 UNK         0.2987 
    111 H111       30.0438   29.8231    0.2100 H         1 UNK         0.0949 
    112 H112       31.8884   28.0337    1.8717 H         1 UNK         0.0806 
    113 H113       30.6709   27.4861    0.7259 H         1 UNK         0.0806 
    114 H114       32.0746   28.3645    0.1528 H         1 UNK         0.0806 
    115 H115       29.9559   31.9537    1.8901 H         1 UNK         0.3010 
    116 H116       30.8847   33.8812    2.5391 H         1 UNK         0.0829 
    117 H117       31.0658   34.0849    0.0720 H         1 UNK         0.0813 
    118 H118       32.3710   34.9560    0.8454 H         1 UNK         0.0813 
    119 H119       32.6779   33.3879    0.0921 H         1 UNK         0.0813 
    120 H120       34.0520   33.9170    1.6114 H         1 UNK         0.3038 
    121 H121       35.1009   34.1041    4.2069 H         1 UNK         0.0769 
    122 H122       37.3044   34.2139    3.0218 H         1 UNK         0.0811 
    123 H123       36.1040   35.2225    2.2345 H         1 UNK         0.0811 
    124 H124       36.5439   33.6628    1.5359 H         1 UNK         0.0811 
    125 H125       34.6567   31.1916    2.2736 H         1 UNK         0.3204 
    126 H126       36.6535   29.5785    3.5811 H         1 UNK         0.0748 
    127 H127       35.4820   27.6903    2.5059 H         1 UNK         0.0771 
    128 H128       34.1107   28.7122    2.1148 H         1 UNK         0.0771 
    129 H129       35.6723   28.9997    1.3498 H         1 UNK         0.0771 
    130 H130       33.4932   30.6933    4.5753 H         1 UNK         0.2980 
    131 H131       33.4271   28.7934    6.8610 H         1 UNK         0.0545 
    132 H132       35.1208   31.5848    6.3580 H         1 UNK         0.3459 
    133 H133       34.9212   32.2603    7.9554 H         1 UNK         0.3459 
    134 H134       31.2520   30.7270    5.9457 H         1 UNK         0.0616 
    135 H135       31.1187   29.5635    7.2402 H         1 UNK         0.0616 
    136 H136       32.7304   26.9490    5.6188 H         1 UNK         0.0634 
    137 H137       31.4703   26.9109    6.8357 H         1 UNK         0.0634 
@<TRIPOS>BOND
     1    1    2 1    
     2    1   72 1    
     3    1   73 1    
     4    1   74 1    
     5    2    3 2    
     6    2    4 am   BACKBONE|DICT|INTERRES
     7    4    5 1    
     8    4   75 1    
     9    5    6 1    
    10    5   35 1    
    11    5   76 1    
    12    6    7 1    
    13    6   77 1    
    14    6   78 1    
    15    7    8 1    
    16    8    9 1    
    17    8   79 1    
    18    8   80 1    
    19    9   10 ar   
    20    9   14 ar   
    21   10   11 ar   
    22   10   81 1    
    23   11   12 ar   
    24   11   71 1    
    25   12   13 ar   
    26   12   82 1    
    27   13   14 ar   
    28   13   15 1    
    29   14   83 1    
    30   15   16 1    
    31   15   84 1    
    32   15   85 1    
    33   16   17 1    
    34   17   18 1    
    35   17   86 1    
    36   17   87 1    
    37   18   19 1    
    38   18   37 1    
    39   18   88 1    
    40   19   20 am   BACKBONE|DICT|INTERRES
    41   19   89 1    
    42   20   21 2    
    43   20   22 1    
    44   22   23 1    
    45   22   24 1    
    46   22   90 1    
    47   23   91 1    
    48   23   92 1    
    49   23   93 1    
    50   24   25 am   BACKBONE|DICT|INTERRES
    51   24   94 1    
    52   25   26 2    
    53   25   27 1    
    54   27   28 1    
    55   27   29 1    
    56   27   95 1    
    57   28   96 1    
    58   28   97 1    
    59   28   98 1    
    60   29   30 am   BACKBONE|DICT|INTERRES
    61   29   99 1    
    62   30   31 2    
    63   30   32 1    
    64   32   33 1    
    65   32   34 1    
    66   32  100 1    
    67   33  101 1    
    68   33  102 1    
    69   33  103 1    
    70   34   35 am   BACKBONE|DICT|INTERRES
    71   34  104 1    
    72   35   36 2    
    73   37   38 2    
    74   37   39 am   BACKBONE|DICT|INTERRES
    75   39   40 1    
    76   39  105 1    
    77   40   41 1    
    78   40   42 1    
    79   40  106 1    
    80   41  107 1    
    81   41  108 1    
    82   41  109 1    
    83   42   43 2    
    84   42   44 am   BACKBONE|DICT|INTERRES
    85   44   45 1    
    86   44  110 1    
    87   45   46 1    
    88   45   47 1    
    89   45  111 1    
    90   46  112 1    
    91   46  113 1    
    92   46  114 1    
    93   47   48 2    
    94   47   49 am   BACKBONE|DICT|INTERRES
    95   49   50 1    
    96   49  115 1    
    97   50   51 1    
    98   50   52 1    
    99   50  116 1    
   100   51  117 1    
   101   51  118 1    
   102   51  119 1    
   103   52   53 2    
   104   52   54 am   BACKBONE|DICT|INTERRES
   105   54   55 1    
   106   54  120 1    
   107   55   56 1    
   108   55   57 1    
   109   55  121 1    
   110   56  122 1    
   111   56  123 1    
   112   56  124 1    
   113   57   58 2    
   114   57   59 am   BACKBONE|DICT|INTERRES
   115   59   60 1    
   116   59  125 1    
   117   60   61 1    
   118   60   62 1    
   119   60  126 1    
   120   61  127 1    
   121   61  128 1    
   122   61  129 1    
   123   62   63 2    
   124   62   64 am   BACKBONE|DICT|INTERRES
   125   64   65 1    
   126   64  130 1    
   127   65   66 1    
   128   65   69 1    
   129   65  131 1    
   130   66   67 am   BACKBONE|DICT|INTERRES
   131   66   68 2    
   132   67  132 1    
   133   67  133 1    
   134   69   70 1    
   135   69  134 1    
   136   69  135 1    
   137   70   71 1    
   138   71  136 1    
   139   71  137 1    
@<TRIPOS>SUBSTRUCTURE
     1 UNK         1 GROUP             0       ****    0 ROOT    
