@<TRIPOS>MOLECULE
3R136
137   139    1
SMALL
USER_CHARGES


@<TRIPOS>ATOM
      1 CA         24.8712   17.4918    0.5094 C.3       0 UNK        -0.1979 
      2 C          25.9803   18.4933    0.2215 C.2       0 UNK         0.4864 
      3 O          26.3948   18.6318   -0.9307 O.2       0 UNK        -0.5359 
      4 N          26.4684   19.1856    1.2593 N.am      1 UNK        -0.4318 
      5 CA         27.4852   20.2373    1.1596 C.3       1 UNK         0.0824 
      6 C6         28.1313   20.5146    2.5419 C.3       12 UNK        -0.0944 
      7 S7         29.8447   21.1214    2.4039 S.3       12 UNK        -0.2672 
      8 C8         29.6112   22.8719    2.8318 C.3       12 UNK         0.0333 
      9 C9         30.8801   23.6843    2.6207 C.ar      12 UNK        -0.0807 
     10 C10        31.5353   24.2859    3.7013 C.ar      12 UNK        -0.0894 
     11 C11        32.6879   25.0539    3.4957 C.ar      12 UNK        -0.0804 
     12 C12        33.1911   25.1974    2.1992 C.ar      12 UNK        -0.0824 
     13 C13        32.5284   24.6279    1.1102 C.ar      12 UNK        -0.0762 
     14 C14        31.3777   23.8665    1.3282 C.ar      12 UNK        -0.0782 
     15 C15        33.0487   24.8527   -0.3017 C.3       12 UNK         0.0230 
     16 S16        32.7058   26.5433   -0.8925 S.3       12 UNK        -0.2608 
     17 C17        30.8816   26.5606   -0.9443 C.3       12 UNK        -0.0989 
     18 CA         30.2496   27.8192   -0.3023 C.3       5 UNK         0.0716 
     19 N          28.8387   27.9298   -0.6762 N.am      5 UNK        -0.4135 
     20 C          28.1399   29.0718   -0.7052 C.2       4 UNK         0.5031 
     21 O          28.6302   30.1803   -0.4949 O.2       4 UNK        -0.5229 
     22 CA         26.6352   28.9574   -1.0099 C.3       4 UNK         0.0329 
     23 CB         26.3816   29.0809   -2.5209 C.3       4 UNK        -0.2001 
     24 N          26.0443   27.7090   -0.5174 N.am      4 UNK        -0.4303 
     25 C          25.8540   27.4229    0.7788 C.2       3 UNK         0.5044 
     26 O          26.1000   28.2063    1.6946 O.2       3 UNK        -0.5152 
     27 CA         25.3287   26.0151    1.1159 C.3       3 UNK         0.0319 
     28 CB         23.7934   26.0179    1.1805 C.3       3 UNK        -0.2001 
     29 N          25.7748   24.9591    0.1987 N.am      3 UNK        -0.4354 
     30 C          27.0507   24.6237   -0.0368 C.2       2 UNK         0.4964 
     31 O          28.0157   25.2183    0.4473 O.2       2 UNK        -0.5047 
     32 CA         27.2902   23.4414   -0.9912 C.3       2 UNK         0.0288 
     33 CB         28.3668   23.7797   -2.0375 C.3       2 UNK        -0.2113 
     34 N          27.6839   22.2266   -0.2739 N.am      2 UNK        -0.4145 
     35 C          26.8823   21.5134    0.5296 C.2       1 UNK         0.5006 
     36 O          25.7134   21.8228    0.7792 O.2       1 UNK        -0.5103 
     37 C          30.4031   27.8703    1.2344 C.2       5 UNK         0.5055 
     38 O          31.3355   28.4990    1.7285 O.2       5 UNK        -0.5220 
     39 N          29.4443   27.2767    1.9610 N.am      6 UNK        -0.4450 
     40 CA         29.3573   27.2700    3.4255 C.3       6 UNK         0.0367 
     41 CB         28.3238   26.2133    3.8487 C.3       6 UNK        -0.1929 
     42 C          28.9848   28.6218    4.0680 C.2       6 UNK         0.5070 
     43 O          28.9066   28.6883    5.2964 O.2       6 UNK        -0.5237 
     44 N          28.6974   29.6520    3.2610 N.am      7 UNK        -0.4739 
     45 CA         28.1808   30.9603    3.6713 C.3       7 UNK         0.0276 
     46 CB         27.6278   31.6800    2.4277 C.3       7 UNK        -0.1927 
     47 C          29.2015   31.8220    4.4439 C.2       7 UNK         0.5013 
     48 O          29.6430   32.8565    3.9377 O.2       7 UNK        -0.5193 
     49 N          29.5445   31.3816    5.6626 N.am      8 UNK        -0.4253 
     50 CA         30.3855   32.0445    6.6656 C.3       8 UNK         0.0242 
     51 CB         29.6115   33.2134    7.3162 C.3       8 UNK        -0.2000 
     52 C          31.7550   32.4483    6.0937 C.2       8 UNK         0.4948 
     53 O          32.5973   31.5762    5.8779 O.2       8 UNK        -0.5275 
     54 N          31.9368   33.7451    5.8051 N.am      9 UNK        -0.4246 
     55 CA         33.1270   34.3389    5.1860 C.3       9 UNK         0.0261 
     56 CB         32.9302   35.8605    5.0848 C.3       9 UNK        -0.1959 
     57 C          33.5061   33.7515    3.8113 C.2       9 UNK         0.5033 
     58 O          34.6498   33.9255    3.3882 O.2       9 UNK        -0.5390 
     59 N          32.5718   33.0490    3.1524 N.am      10 UNK        -0.4215 
     60 CA         32.8170   32.2638    1.9416 C.3       10 UNK         0.0240 
     61 CB         31.4767   31.7833    1.3653 C.3       10 UNK        -0.1982 
     62 C          33.7872   31.0789    2.1403 C.2       10 UNK         0.4970 
     63 O          34.4007   30.6660    1.1543 O.2       10 UNK        -0.4916 
     64 N          33.9476   30.5777    3.3763 N.am      11 UNK        -0.4279 
     65 CA         34.9259   29.5284    3.7108 C.3       11 UNK         0.1003 
     66 C          35.6415   29.6990    5.0797 C.2       11 UNK         0.5709 
     67 N          35.1743   30.5425    5.9908 N.am      11 UNK        -0.7358 
     68 O          36.6730   29.0710    5.3091 O.2       11 UNK        -0.4999 
     69 C69        34.3757   28.0963    3.4749 C.3       12 UNK        -0.0954 
     70 S70        33.1291   27.5346    4.6900 S.3       12 UNK        -0.2268 
     71 C71        33.3886   25.7274    4.6705 C.3       12 UNK         0.0203 
     72 H72        24.6132   17.4619    1.5679 H         1 UNK         0.0888 
     73 H73        23.9743   17.7547   -0.0508 H         1 UNK         0.0888 
     74 H74        25.1811   16.4915    0.2079 H         1 UNK         0.0888 
     75 H75        26.0632   19.0531    2.1749 H         1 UNK         0.3017 
     76 H76        28.2585   19.8591    0.4863 H         1 UNK         0.0873 
     77 H77        28.1906   19.5887    3.1168 H         1 UNK         0.0745 
     78 H78        27.5241   21.1927    3.1456 H         1 UNK         0.0745 
     79 H79        28.8182   23.2867    2.2100 H         1 UNK         0.0705 
     80 H80        29.2703   22.9443    3.8658 H         1 UNK         0.0705 
     81 H81        31.1418   24.1663    4.7013 H         1 UNK         0.1334 
     82 H82        34.0850   25.7779    2.0263 H         1 UNK         0.1417 
     83 H83        30.8590   23.4191    0.4919 H         1 UNK         0.1562 
     84 H84        32.6135   24.1329   -0.9969 H         1 UNK         0.0748 
     85 H85        34.1262   24.6831   -0.3214 H         1 UNK         0.0748 
     86 H86        30.4758   25.6607   -0.4864 H         1 UNK         0.0940 
     87 H87        30.5999   26.5046   -1.9970 H         1 UNK         0.0940 
     88 H88        30.7694   28.6913   -0.7062 H         1 UNK         0.0703 
     89 H89        28.3443   27.0578   -0.8037 H         1 UNK         0.3081 
     90 H90        26.1350   29.7905   -0.5109 H         1 UNK         0.0719 
     91 H91        26.7919   30.0143   -2.9091 H         1 UNK         0.0809 
     92 H92        26.8436   28.2653   -3.0786 H         1 UNK         0.0809 
     93 H93        25.3148   29.0807   -2.7456 H         1 UNK         0.0809 
     94 H94        25.7912   27.0140   -1.2048 H         1 UNK         0.2990 
     95 H95        25.7057   25.7570    2.1068 H         1 UNK         0.0690 
     96 H96        23.4332   26.7766    1.8771 H         1 UNK         0.0788 
     97 H97        23.4088   25.0575    1.5247 H         1 UNK         0.0788 
     98 H98        23.3476   26.2303    0.2079 H         1 UNK         0.0788 
     99 H99        25.0477   24.3946   -0.2182 H         1 UNK         0.2993 
    100 H100       26.3610   23.2338   -1.5267 H         1 UNK         0.0949 
    101 H101       28.4385   22.9987   -2.7949 H         1 UNK         0.0767 
    102 H102       28.1339   24.7106   -2.5564 H         1 UNK         0.0767 
    103 H103       29.3519   23.8935   -1.5855 H         1 UNK         0.0767 
    104 H104       28.6358   21.9168   -0.4040 H         1 UNK         0.3013 
    105 H105       28.7472   26.7266    1.4690 H         1 UNK         0.3121 
    106 H106       30.3339   26.9778    3.8131 H         1 UNK         0.0774 
    107 H107       28.4015   25.9979    4.9149 H         1 UNK         0.0815 
    108 H108       27.3054   26.5533    3.6601 H         1 UNK         0.0815 
    109 H109       28.4617   25.2775    3.3158 H         1 UNK         0.0815 
    110 H110       28.7897   29.5016    2.2668 H         1 UNK         0.2987 
    111 H111       27.3397   30.7873    4.3463 H         1 UNK         0.0949 
    112 H112       27.1900   32.6427    2.6943 H         1 UNK         0.0806 
    113 H113       28.4084   31.8698    1.6904 H         1 UNK         0.0806 
    114 H114       26.8474   31.0922    1.9435 H         1 UNK         0.0806 
    115 H115       29.2233   30.4455    5.9011 H         1 UNK         0.3010 
    116 H116       30.5867   31.3055    7.4427 H         1 UNK         0.0829 
    117 H117       29.2872   33.9562    6.5864 H         1 UNK         0.0813 
    118 H118       28.7194   32.8500    7.8265 H         1 UNK         0.0813 
    119 H119       30.2196   33.7224    8.0656 H         1 UNK         0.0813 
    120 H120       31.1637   34.3715    5.9774 H         1 UNK         0.3038 
    121 H121       33.9680   34.1453    5.8549 H         1 UNK         0.0769 
    122 H122       32.0809   36.1151    4.4493 H         1 UNK         0.0811 
    123 H123       33.8118   36.3416    4.6583 H         1 UNK         0.0811 
    124 H124       32.7642   36.3070    6.0654 H         1 UNK         0.0811 
    125 H125       31.6390   32.9891    3.5516 H         1 UNK         0.3204 
    126 H126       33.2756   32.9313    1.2092 H         1 UNK         0.0748 
    127 H127       31.6235   31.2166    0.4447 H         1 UNK         0.0771 
    128 H128       30.9545   31.1307    2.0644 H         1 UNK         0.0771 
    129 H129       30.8185   32.6201    1.1312 H         1 UNK         0.0771 
    130 H130       33.4097   30.9526    4.1498 H         1 UNK         0.2980 
    131 H131       35.7514   29.6463    3.0060 H         1 UNK         0.0545 
    132 H132       35.6749   30.6387    6.8591 H         1 UNK         0.3459 
    133 H133       34.2686   30.9936    5.8854 H         1 UNK         0.3459 
    134 H134       35.2079   27.3910    3.4720 H         1 UNK         0.0616 
    135 H135       33.9317   28.0371    2.4805 H         1 UNK         0.0616 
    136 H136       34.4554   25.5008    4.6489 H         1 UNK         0.0634 
    137 H137       33.0148   25.3213    5.6115 H         1 UNK         0.0634 
@<TRIPOS>BOND
     1    1    2 1    
     2    1   72 1    
     3    1   73 1    
     4    1   74 1    
     5    2    3 2    
     6    2    4 am   BACKBONE|DICT|INTERRES
     7    4    5 1    
     8    4   75 1    
     9    5    6 1    
    10    5   35 1    
    11    5   76 1    
    12    6    7 1    
    13    6   77 1    
    14    6   78 1    
    15    7    8 1    
    16    8    9 1    
    17    8   79 1    
    18    8   80 1    
    19    9   10 ar   
    20    9   14 ar   
    21   10   11 ar   
    22   10   81 1    
    23   11   12 ar   
    24   11   71 1    
    25   12   13 ar   
    26   12   82 1    
    27   13   14 ar   
    28   13   15 1    
    29   14   83 1    
    30   15   16 1    
    31   15   84 1    
    32   15   85 1    
    33   16   17 1    
    34   17   18 1    
    35   17   86 1    
    36   17   87 1    
    37   18   19 1    
    38   18   37 1    
    39   18   88 1    
    40   19   20 am   BACKBONE|DICT|INTERRES
    41   19   89 1    
    42   20   21 2    
    43   20   22 1    
    44   22   23 1    
    45   22   24 1    
    46   22   90 1    
    47   23   91 1    
    48   23   92 1    
    49   23   93 1    
    50   24   25 am   BACKBONE|DICT|INTERRES
    51   24   94 1    
    52   25   26 2    
    53   25   27 1    
    54   27   28 1    
    55   27   29 1    
    56   27   95 1    
    57   28   96 1    
    58   28   97 1    
    59   28   98 1    
    60   29   30 am   BACKBONE|DICT|INTERRES
    61   29   99 1    
    62   30   31 2    
    63   30   32 1    
    64   32   33 1    
    65   32   34 1    
    66   32  100 1    
    67   33  101 1    
    68   33  102 1    
    69   33  103 1    
    70   34   35 am   BACKBONE|DICT|INTERRES
    71   34  104 1    
    72   35   36 2    
    73   37   38 2    
    74   37   39 am   BACKBONE|DICT|INTERRES
    75   39   40 1    
    76   39  105 1    
    77   40   41 1    
    78   40   42 1    
    79   40  106 1    
    80   41  107 1    
    81   41  108 1    
    82   41  109 1    
    83   42   43 2    
    84   42   44 am   BACKBONE|DICT|INTERRES
    85   44   45 1    
    86   44  110 1    
    87   45   46 1    
    88   45   47 1    
    89   45  111 1    
    90   46  112 1    
    91   46  113 1    
    92   46  114 1    
    93   47   48 2    
    94   47   49 am   BACKBONE|DICT|INTERRES
    95   49   50 1    
    96   49  115 1    
    97   50   51 1    
    98   50   52 1    
    99   50  116 1    
   100   51  117 1    
   101   51  118 1    
   102   51  119 1    
   103   52   53 2    
   104   52   54 am   BACKBONE|DICT|INTERRES
   105   54   55 1    
   106   54  120 1    
   107   55   56 1    
   108   55   57 1    
   109   55  121 1    
   110   56  122 1    
   111   56  123 1    
   112   56  124 1    
   113   57   58 2    
   114   57   59 am   BACKBONE|DICT|INTERRES
   115   59   60 1    
   116   59  125 1    
   117   60   61 1    
   118   60   62 1    
   119   60  126 1    
   120   61  127 1    
   121   61  128 1    
   122   61  129 1    
   123   62   63 2    
   124   62   64 am   BACKBONE|DICT|INTERRES
   125   64   65 1    
   126   64  130 1    
   127   65   66 1    
   128   65   69 1    
   129   65  131 1    
   130   66   67 am   BACKBONE|DICT|INTERRES
   131   66   68 2    
   132   67  132 1    
   133   67  133 1    
   134   69   70 1    
   135   69  134 1    
   136   69  135 1    
   137   70   71 1    
   138   71  136 1    
   139   71  137 1    
@<TRIPOS>SUBSTRUCTURE
     1 UNK         1 GROUP             0       ****    0 ROOT    
