@<TRIPOS>MOLECULE
3R136
137   139    1
SMALL
USER_CHARGES


@<TRIPOS>ATOM
      1 CA         29.6567   24.3487    3.7344 C.3       0 UNK        -0.1979 
      2 C          28.8075   23.5403    2.7680 C.2       0 UNK         0.4864 
      3 O          27.5820   23.6595    2.7752 O.2       0 UNK        -0.5359 
      4 N          29.4639   22.7234    1.9366 N.am      1 UNK        -0.4318 
      5 CA         28.8742   21.6560    1.1201 C.3       1 UNK         0.0824 
      6 C6         29.9618   20.8429    0.3766 C.3       12 UNK        -0.0944 
      7 S7         31.2582   20.2177    1.5022 S.3       12 UNK        -0.2672 
      8 C8         32.7649   20.9810    0.8209 C.3       12 UNK         0.0333 
      9 C9         32.8894   22.4630    1.1557 C.ar      12 UNK        -0.0807 
     10 C10        33.4296   22.8634    2.3840 C.ar      12 UNK        -0.0894 
     11 C11        33.6442   24.2184    2.6596 C.ar      12 UNK        -0.0804 
     12 C12        33.3107   25.1720    1.6953 C.ar      12 UNK        -0.0824 
     13 C13        32.7242   24.7914    0.4851 C.ar      12 UNK        -0.0762 
     14 C14        32.5259   23.4340    0.2153 C.ar      12 UNK        -0.0782 
     15 C15        32.3212   25.8520   -0.5326 C.3       12 UNK         0.0230 
     16 S16        30.5196   26.1327   -0.5744 S.3       12 UNK        -0.2608 
     17 C17        30.1499   26.6413    1.1336 C.3       12 UNK        -0.0989 
     18 CA         29.8291   28.1453    1.3017 C.3       5 UNK         0.0716 
     19 N          28.4878   28.4688    0.8482 N.am      5 UNK        -0.4135 
     20 C          28.0788   29.0322   -0.2851 C.2       4 UNK         0.5031 
     21 O          28.8298   29.4272   -1.1774 O.2       4 UNK        -0.5229 
     22 CA         26.5409   29.1434   -0.4225 C.3       4 UNK         0.0329 
     23 CB         26.1036   29.5035   -1.8535 C.3       4 UNK        -0.2001 
     24 N          25.8443   27.9135   -0.0084 N.am      4 UNK        -0.4303 
     25 C          25.7218   27.4257    1.2354 C.2       3 UNK         0.5044 
     26 O          26.1277   28.0225    2.2366 O.2       3 UNK        -0.5152 
     27 CA         25.1976   25.9863    1.3813 C.3       3 UNK         0.0319 
     28 CB         23.6768   25.9033    1.1469 C.3       3 UNK        -0.2001 
     29 N          25.9506   25.0135    0.5692 N.am      3 UNK        -0.4354 
     30 C          25.9840   24.8975   -0.7702 C.2       2 UNK         0.4964 
     31 O          25.2995   25.5915   -1.5240 O.2       2 UNK        -0.5047 
     32 CA         26.9613   23.8842   -1.3952 C.3       2 UNK         0.0288 
     33 CB         27.7545   24.5253   -2.5490 C.3       2 UNK        -0.2113 
     34 N          27.9062   23.3194   -0.4252 N.am      2 UNK        -0.4145 
     35 C          27.7749   22.1092    0.1363 C.2       1 UNK         0.5006 
     36 O          26.8309   21.3505   -0.0915 O.2       1 UNK        -0.5103 
     37 C          29.8852   28.5336    2.7871 C.2       5 UNK         0.5055 
     38 O          30.7864   29.2701    3.1822 O.2       5 UNK        -0.5220 
     39 N          28.9105   28.0440    3.5749 N.am      6 UNK        -0.4450 
     40 CA         28.6936   28.4223    4.9734 C.3       6 UNK         0.0367 
     41 CB         27.8138   27.3703    5.6674 C.3       6 UNK        -0.1929 
     42 C          28.0591   29.8158    5.0842 C.2       6 UNK         0.5070 
     43 O          28.4121   30.5771    5.9830 O.2       6 UNK        -0.5237 
     44 N          27.1833   30.1530    4.1269 N.am      7 UNK        -0.4739 
     45 CA         26.6490   31.4991    3.9041 C.3       7 UNK         0.0276 
     46 CB         25.2505   31.3746    3.2708 C.3       7 UNK        -0.1927 
     47 C          27.6088   32.3618    3.0535 C.2       7 UNK         0.5013 
     48 O          27.1535   33.1450    2.2185 O.2       7 UNK        -0.5193 
     49 N          28.9189   32.1917    3.2613 N.am      8 UNK        -0.4253 
     50 CA         30.0161   32.8573    2.5713 C.3       8 UNK         0.0242 
     51 CB         30.2089   32.2435    1.1687 C.3       8 UNK        -0.2000 
     52 C          31.2805   32.7102    3.4308 C.2       8 UNK         0.4948 
     53 O          31.2649   32.0119    4.4481 O.2       8 UNK        -0.5275 
     54 N          32.3699   33.3558    2.9986 N.am      9 UNK        -0.4246 
     55 CA         33.6735   33.3233    3.6715 C.3       9 UNK         0.0261 
     56 CB         34.5383   34.4753    3.1312 C.3       9 UNK        -0.1959 
     57 C          34.4243   31.9812    3.5454 C.2       9 UNK         0.5033 
     58 O          35.4187   31.7921    4.2476 O.2       9 UNK        -0.5390 
     59 N          33.9718   31.0935    2.6469 N.am      10 UNK        -0.4215 
     60 CA         34.6004   29.8040    2.3508 C.3       10 UNK         0.0240 
     61 CB         33.9655   29.1956    1.0899 C.3       10 UNK        -0.1982 
     62 C          34.5440   28.8106    3.5230 C.2       10 UNK         0.4970 
     63 O          35.5599   28.1808    3.8187 O.2       10 UNK        -0.4916 
     64 N          33.3706   28.6881    4.1537 N.am      11 UNK        -0.4279 
     65 CA         33.1051   27.7844    5.2826 C.3       11 UNK         0.1003 
     66 C          32.4374   28.4936    6.4948 C.2       11 UNK         0.5709 
     67 N          32.0125   29.7490    6.3991 N.am      11 UNK        -0.7358 
     68 O          32.3158   27.8942    7.5601 O.2       11 UNK        -0.4999 
     69 C69        32.3087   26.5270    4.8160 C.3       12 UNK        -0.0954 
     70 S70        33.0745   24.9448    5.3057 S.3       12 UNK        -0.2268 
     71 C71        34.2856   24.6538    3.9726 C.3       12 UNK         0.0203 
     72 H72        29.6020   23.9155    4.7326 H         1 UNK         0.0888 
     73 H73        30.7026   24.3676    3.4299 H         1 UNK         0.0888 
     74 H74        29.2998   25.3726    3.7927 H         1 UNK         0.0888 
     75 H75        30.4742   22.6967    1.9786 H         1 UNK         0.3017 
     76 H76        28.3853   20.9798    1.8248 H         1 UNK         0.0873 
     77 H77        30.4155   21.4410   -0.4150 H         1 UNK         0.0745 
     78 H78        29.5146   19.9793   -0.1200 H         1 UNK         0.0745 
     79 H79        32.7970   20.8252   -0.2587 H         1 UNK         0.0705 
     80 H80        33.6299   20.4506    1.2220 H         1 UNK         0.0705 
     81 H81        33.7109   22.1170    3.1148 H         1 UNK         0.1334 
     82 H82        33.4973   26.2177    1.8945 H         1 UNK         0.1417 
     83 H83        32.1045   23.1376   -0.7357 H         1 UNK         0.1562 
     84 H84        32.6521   25.5450   -1.5257 H         1 UNK         0.0748 
     85 H85        32.8218   26.7985   -0.3269 H         1 UNK         0.0748 
     86 H86        30.9747   26.3535    1.7792 H         1 UNK         0.0940 
     87 H87        29.2987   26.0437    1.4567 H         1 UNK         0.0940 
     88 H88        30.5606   28.7467    0.7590 H         1 UNK         0.0703 
     89 H89        27.7390   28.2582    1.5011 H         1 UNK         0.3081 
     90 H90        26.2228   29.9523    0.2376 H         1 UNK         0.0719 
     91 H91        26.4030   28.7363   -2.5688 H         1 UNK         0.0809 
     92 H92        25.0219   29.6210   -1.9201 H         1 UNK         0.0809 
     93 H93        26.5500   30.4452   -2.1760 H         1 UNK         0.0809 
     94 H94        25.5470   27.2930   -0.7580 H         1 UNK         0.2990 
     95 H95        25.3777   25.6943    2.4174 H         1 UNK         0.0690 
     96 H96        23.3098   24.8876    1.2942 H         1 UNK         0.0788 
     97 H97        23.3920   26.2198    0.1433 H         1 UNK         0.0788 
     98 H98        23.1431   26.5454    1.8488 H         1 UNK         0.0788 
     99 H99        26.5517   24.3994    1.1107 H         1 UNK         0.2993 
    100 H100       26.3488   23.0884   -1.8245 H         1 UNK         0.0949 
    101 H101       28.2657   25.4343   -2.2334 H         1 UNK         0.0767 
    102 H102       28.5003   23.8400   -2.9523 H         1 UNK         0.0767 
    103 H103       27.0927   24.7997   -3.3715 H         1 UNK         0.0767 
    104 H104       28.7059   23.8869   -0.1810 H         1 UNK         0.3013 
    105 H105       28.1996   27.4481    3.1765 H         1 UNK         0.3121 
    106 H106       29.6571   28.4543    5.4830 H         1 UNK         0.0774 
    107 H107       27.6067   27.6577    6.6992 H         1 UNK         0.0815 
    108 H108       26.8533   27.2475    5.1649 H         1 UNK         0.0815 
    109 H109       28.3047   26.3984    5.7014 H         1 UNK         0.0815 
    110 H110       26.9099   29.4485    3.4507 H         1 UNK         0.2987 
    111 H111       26.5366   32.0046    4.8657 H         1 UNK         0.0949 
    112 H112       24.5858   30.7759    3.8938 H         1 UNK         0.0806 
    113 H113       24.7836   32.3530    3.1509 H         1 UNK         0.0806 
    114 H114       25.2935   30.9088    2.2861 H         1 UNK         0.0806 
    115 H115       29.2282   31.5827    4.0127 H         1 UNK         0.3010 
    116 H116       29.7841   33.9206    2.4827 H         1 UNK         0.0829 
    117 H117       29.2975   32.3079    0.5740 H         1 UNK         0.0813 
    118 H118       30.9878   32.7619    0.6091 H         1 UNK         0.0813 
    119 H119       30.4913   31.1926    1.2247 H         1 UNK         0.0813 
    120 H120       32.3080   33.9142    2.1588 H         1 UNK         0.3038 
    121 H121       33.5082   33.4953    4.7374 H         1 UNK         0.0769 
    122 H122       34.7365   34.3659    2.0642 H         1 UNK         0.0811 
    123 H123       35.5033   34.5122    3.6388 H         1 UNK         0.0811 
    124 H124       34.0575   35.4411    3.2878 H         1 UNK         0.0811 
    125 H125       33.1405   31.3289    2.1266 H         1 UNK         0.3204 
    126 H126       35.6537   29.9967    2.1354 H         1 UNK         0.0748 
    127 H127       34.4689   28.2682    0.8141 H         1 UNK         0.0771 
    128 H128       32.9102   28.9667    1.2369 H         1 UNK         0.0771 
    129 H129       34.0478   29.8701    0.2373 H         1 UNK         0.0771 
    130 H130       32.5613   29.2038    3.8165 H         1 UNK         0.2980 
    131 H131       34.0671   27.4566    5.6799 H         1 UNK         0.0545 
    132 H132       31.5874   30.1754    7.2062 H         1 UNK         0.3459 
    133 H133       32.0398   30.2687    5.5318 H         1 UNK         0.3459 
    134 H134       32.1791   26.5259    3.7375 H         1 UNK         0.0616 
    135 H135       31.2897   26.5309    5.2069 H         1 UNK         0.0616 
    136 H136       34.9849   23.8858    4.3061 H         1 UNK         0.0634 
    137 H137       34.8816   25.5546    3.8235 H         1 UNK         0.0634 
@<TRIPOS>BOND
     1    1    2 1    
     2    1   72 1    
     3    1   73 1    
     4    1   74 1    
     5    2    3 2    
     6    2    4 am   BACKBONE|DICT|INTERRES
     7    4    5 1    
     8    4   75 1    
     9    5    6 1    
    10    5   35 1    
    11    5   76 1    
    12    6    7 1    
    13    6   77 1    
    14    6   78 1    
    15    7    8 1    
    16    8    9 1    
    17    8   79 1    
    18    8   80 1    
    19    9   10 ar   
    20    9   14 ar   
    21   10   11 ar   
    22   10   81 1    
    23   11   12 ar   
    24   11   71 1    
    25   12   13 ar   
    26   12   82 1    
    27   13   14 ar   
    28   13   15 1    
    29   14   83 1    
    30   15   16 1    
    31   15   84 1    
    32   15   85 1    
    33   16   17 1    
    34   17   18 1    
    35   17   86 1    
    36   17   87 1    
    37   18   19 1    
    38   18   37 1    
    39   18   88 1    
    40   19   20 am   BACKBONE|DICT|INTERRES
    41   19   89 1    
    42   20   21 2    
    43   20   22 1    
    44   22   23 1    
    45   22   24 1    
    46   22   90 1    
    47   23   91 1    
    48   23   92 1    
    49   23   93 1    
    50   24   25 am   BACKBONE|DICT|INTERRES
    51   24   94 1    
    52   25   26 2    
    53   25   27 1    
    54   27   28 1    
    55   27   29 1    
    56   27   95 1    
    57   28   96 1    
    58   28   97 1    
    59   28   98 1    
    60   29   30 am   BACKBONE|DICT|INTERRES
    61   29   99 1    
    62   30   31 2    
    63   30   32 1    
    64   32   33 1    
    65   32   34 1    
    66   32  100 1    
    67   33  101 1    
    68   33  102 1    
    69   33  103 1    
    70   34   35 am   BACKBONE|DICT|INTERRES
    71   34  104 1    
    72   35   36 2    
    73   37   38 2    
    74   37   39 am   BACKBONE|DICT|INTERRES
    75   39   40 1    
    76   39  105 1    
    77   40   41 1    
    78   40   42 1    
    79   40  106 1    
    80   41  107 1    
    81   41  108 1    
    82   41  109 1    
    83   42   43 2    
    84   42   44 am   BACKBONE|DICT|INTERRES
    85   44   45 1    
    86   44  110 1    
    87   45   46 1    
    88   45   47 1    
    89   45  111 1    
    90   46  112 1    
    91   46  113 1    
    92   46  114 1    
    93   47   48 2    
    94   47   49 am   BACKBONE|DICT|INTERRES
    95   49   50 1    
    96   49  115 1    
    97   50   51 1    
    98   50   52 1    
    99   50  116 1    
   100   51  117 1    
   101   51  118 1    
   102   51  119 1    
   103   52   53 2    
   104   52   54 am   BACKBONE|DICT|INTERRES
   105   54   55 1    
   106   54  120 1    
   107   55   56 1    
   108   55   57 1    
   109   55  121 1    
   110   56  122 1    
   111   56  123 1    
   112   56  124 1    
   113   57   58 2    
   114   57   59 am   BACKBONE|DICT|INTERRES
   115   59   60 1    
   116   59  125 1    
   117   60   61 1    
   118   60   62 1    
   119   60  126 1    
   120   61  127 1    
   121   61  128 1    
   122   61  129 1    
   123   62   63 2    
   124   62   64 am   BACKBONE|DICT|INTERRES
   125   64   65 1    
   126   64  130 1    
   127   65   66 1    
   128   65   69 1    
   129   65  131 1    
   130   66   67 am   BACKBONE|DICT|INTERRES
   131   66   68 2    
   132   67  132 1    
   133   67  133 1    
   134   69   70 1    
   135   69  134 1    
   136   69  135 1    
   137   70   71 1    
   138   71  136 1    
   139   71  137 1    
@<TRIPOS>SUBSTRUCTURE
     1 UNK         1 GROUP             0       ****    0 ROOT    
