@<TRIPOS>MOLECULE
3R136
137   139    1
SMALL
USER_CHARGES


@<TRIPOS>ATOM
      1 CA         27.5829   18.9890    1.4837 C.3       0 UNK        -0.1979 
      2 C          28.7739   19.3965    0.6289 C.2       0 UNK         0.4864 
      3 O          29.7345   18.6341    0.5128 O.2       0 UNK        -0.5359 
      4 N          28.7187   20.5917    0.0347 N.am      1 UNK        -0.4318 
      5 CA         29.7481   21.1660   -0.8294 C.3       1 UNK         0.0824 
      6 C6         30.9726   21.7124   -0.0392 C.3       12 UNK        -0.0944 
      7 S7         30.5799   23.0458    1.1479 S.3       12 UNK        -0.2672 
      8 C8         30.6040   22.1295    2.7178 C.3       12 UNK         0.0333 
      9 C9         30.0814   22.9833    3.8618 C.ar      12 UNK        -0.0807 
     10 C10        30.9685   23.6250    4.7306 C.ar      12 UNK        -0.0894 
     11 C11        30.4877   24.4031    5.7892 C.ar      12 UNK        -0.0804 
     12 C12        29.1083   24.5190    5.9854 C.ar      12 UNK        -0.0824 
     13 C13        28.2119   23.8869    5.1186 C.ar      12 UNK        -0.0762 
     14 C14        28.7045   23.1206    4.0585 C.ar      12 UNK        -0.0782 
     15 C15        26.7112   24.0228    5.3251 C.3       12 UNK         0.0230 
     16 S16        26.0200   25.3827    4.3321 S.3       12 UNK        -0.2608 
     17 C17        26.5105   26.8490    5.3037 C.3       12 UNK        -0.0989 
     18 CA         27.7477   27.5871    4.7244 C.3       5 UNK         0.0716 
     19 N          27.5315   27.9940    3.3344 N.am      5 UNK        -0.4135 
     20 C          28.4941   28.2288    2.4374 C.2       4 UNK         0.5031 
     21 O          29.7007   28.2090    2.6993 O.2       4 UNK        -0.5229 
     22 CA         28.0180   28.5907    1.0206 C.3       4 UNK         0.0329 
     23 CB         27.8120   30.1075    0.8969 C.3       4 UNK        -0.2001 
     24 N          28.9845   28.1531    0.0146 N.am      4 UNK        -0.4303 
     25 C          29.1675   26.8775   -0.3463 C.2       3 UNK         0.5044 
     26 O          28.4612   25.9450    0.0435 O.2       3 UNK        -0.5152 
     27 CA         30.3665   26.6124   -1.2721 C.3       3 UNK         0.0319 
     28 CB         31.6695   26.5715   -0.4584 C.3       3 UNK        -0.2001 
     29 N          30.2287   25.3512   -1.9997 N.am      3 UNK        -0.4354 
     30 C          29.4349   25.1625   -3.0627 C.2       2 UNK         0.4964 
     31 O          28.7704   26.0583   -3.5859 O.2       2 UNK        -0.5047 
     32 CA         29.3881   23.7460   -3.6684 C.3       2 UNK         0.0288 
     33 CB         30.2462   23.6795   -4.9433 C.3       2 UNK        -0.2113 
     34 N          29.8296   22.6979   -2.7416 N.am      2 UNK        -0.4145 
     35 C          29.0849   22.2217   -1.7343 C.2       1 UNK         0.5006 
     36 O          27.9236   22.5803   -1.5127 O.2       1 UNK        -0.5103 
     37 C          28.1635   28.7902    5.5996 C.2       5 UNK         0.5055 
     38 O          27.3959   29.2019    6.4717 O.2       5 UNK        -0.5220 
     39 N          29.3620   29.3318    5.3383 N.am      6 UNK        -0.4450 
     40 CA         29.9867   30.4842    6.0002 C.3       6 UNK         0.0367 
     41 CB         30.2995   30.1778    7.4805 C.3       6 UNK        -0.1929 
     42 C          29.1577   31.7673    5.8096 C.2       6 UNK         0.5070 
     43 O          28.6455   32.3329    6.7780 O.2       6 UNK        -0.5237 
     44 N          29.0227   32.1829    4.5469 N.am      7 UNK        -0.4739 
     45 CA         28.2391   33.3430    4.1274 C.3       7 UNK         0.0276 
     46 CB         26.7743   32.9260    3.8757 C.3       7 UNK        -0.1927 
     47 C          28.9362   33.9936    2.9268 C.2       7 UNK         0.5013 
     48 O          29.9593   34.6516    3.1184 O.2       7 UNK        -0.5193 
     49 N          28.4009   33.7838    1.7139 N.am      8 UNK        -0.4253 
     50 CA         28.9619   34.2675    0.4430 C.3       8 UNK         0.0242 
     51 CB         27.9597   33.9870   -0.6888 C.3       8 UNK        -0.2000 
     52 C          30.3412   33.6692    0.0997 C.2       8 UNK         0.4948 
     53 O          31.1026   34.2850   -0.6472 O.2       8 UNK        -0.5275 
     54 N          30.6361   32.4980    0.6695 N.am      9 UNK        -0.4246 
     55 CA         31.9399   31.8568    0.7214 C.3       9 UNK         0.0261 
     56 CB         31.9745   30.6741   -0.2597 C.3       9 UNK        -0.1959 
     57 C          32.1249   31.3728    2.1628 C.2       9 UNK         0.5033 
     58 O          31.1343   31.0577    2.8321 O.2       9 UNK        -0.5390 
     59 N          33.3819   31.2987    2.6091 N.am      10 UNK        -0.4215 
     60 CA         33.7670   30.8598    3.9508 C.3       10 UNK         0.0240 
     61 CB         35.0106   31.6541    4.3954 C.3       10 UNK        -0.1982 
     62 C          33.9874   29.3366    3.9878 C.2       10 UNK         0.4970 
     63 O          35.0946   28.8928    4.2964 O.2       10 UNK        -0.4916 
     64 N          32.9462   28.5679    3.6340 N.am      11 UNK        -0.4279 
     65 CA         32.9473   27.0916    3.5597 C.3       11 UNK         0.1003 
     66 C          33.8532   26.4932    2.4375 C.2       11 UNK         0.5709 
     67 N          34.3741   27.2844    1.5062 N.am      11 UNK        -0.7358 
     68 O          34.0641   25.2841    2.3853 O.2       11 UNK        -0.4999 
     69 C69        33.1986   26.4173    4.9416 C.3       12 UNK        -0.0954 
     70 S70        31.8847   26.7766    6.1551 S.3       12 UNK        -0.2268 
     71 C71        31.4495   25.1059    6.7368 C.3       12 UNK         0.0203 
     72 H72        27.9024   18.8087    2.5098 H         1 UNK         0.0888 
     73 H73        26.8110   19.7583    1.4998 H         1 UNK         0.0888 
     74 H74        27.1397   18.0715    1.0976 H         1 UNK         0.0888 
     75 H75        27.8930   21.1746    0.1072 H         1 UNK         0.3017 
     76 H76        30.0979   20.3734   -1.4947 H         1 UNK         0.0873 
     77 H77        31.4595   20.8934    0.4923 H         1 UNK         0.0745 
     78 H78        31.7310   22.0896   -0.7268 H         1 UNK         0.0745 
     79 H79        31.6217   21.7933    2.9225 H         1 UNK         0.0705 
     80 H80        29.9939   21.2303    2.6295 H         1 UNK         0.0705 
     81 H81        32.0326   23.5134    4.5792 H         1 UNK         0.1334 
     82 H82        28.7328   25.1125    6.8077 H         1 UNK         0.1417 
     83 H83        28.0157   22.6330    3.3817 H         1 UNK         0.1562 
     84 H84        26.4757   24.1699    6.3802 H         1 UNK         0.0748 
     85 H85        26.2174   23.0940    5.0351 H         1 UNK         0.0748 
     86 H86        26.6929   26.5505    6.3376 H         1 UNK         0.0940 
     87 H87        25.6504   27.5207    5.3395 H         1 UNK         0.0940 
     88 H88        28.5865   26.8889    4.7375 H         1 UNK         0.0703 
     89 H89        26.5672   28.0525    3.0424 H         1 UNK         0.3081 
     90 H90        27.0670   28.0906    0.8232 H         1 UNK         0.0719 
     91 H91        28.7025   30.6548    1.2010 H         1 UNK         0.0809 
     92 H92        27.5645   30.3974   -0.1245 H         1 UNK         0.0809 
     93 H93        26.9905   30.4366    1.5328 H         1 UNK         0.0809 
     94 H94        29.6257   28.8519   -0.3267 H         1 UNK         0.2990 
     95 H95        30.4333   27.4273   -1.9965 H         1 UNK         0.0690 
     96 H96        32.5381   26.4276   -1.1012 H         1 UNK         0.0788 
     97 H97        31.6593   25.7667    0.2776 H         1 UNK         0.0788 
     98 H98        31.8229   27.5026    0.0875 H         1 UNK         0.0788 
     99 H99        30.6912   24.5499   -1.5980 H         1 UNK         0.2993 
    100 H100       28.3502   23.5488   -3.9467 H         1 UNK         0.0949 
    101 H101       31.3001   23.8655   -4.7319 H         1 UNK         0.0767 
    102 H102       30.1658   22.7051   -5.4258 H         1 UNK         0.0767 
    103 H103       29.9233   24.4261   -5.6705 H         1 UNK         0.0767 
    104 H104       30.7653   22.3412   -2.8747 H         1 UNK         0.3013 
    105 H105       29.8547   28.9607    4.5303 H         1 UNK         0.3121 
    106 H106       30.9379   30.6482    5.4980 H         1 UNK         0.0774 
    107 H107       30.8326   31.0089    7.9434 H         1 UNK         0.0815 
    108 H108       29.3944   30.0096    8.0645 H         1 UNK         0.0815 
    109 H109       30.9300   29.2948    7.5786 H         1 UNK         0.0815 
    110 H110       29.5724   31.7145    3.8300 H         1 UNK         0.2987 
    111 H111       28.2454   34.0938    4.9211 H         1 UNK         0.0949 
    112 H112       26.1824   33.7621    3.5004 H         1 UNK         0.0806 
    113 H113       26.6933   32.1067    3.1628 H         1 UNK         0.0806 
    114 H114       26.3029   32.5955    4.8017 H         1 UNK         0.0806 
    115 H115       27.5445   33.2524    1.6559 H         1 UNK         0.3010 
    116 H116       29.0913   35.3486    0.5281 H         1 UNK         0.0829 
    117 H117       27.0029   34.4756   -0.5038 H         1 UNK         0.0813 
    118 H118       28.3334   34.3635   -1.6422 H         1 UNK         0.0813 
    119 H119       27.7754   32.9191   -0.8113 H         1 UNK         0.0813 
    120 H120       29.9767   32.1125    1.3309 H         1 UNK         0.3038 
    121 H121       32.7265   32.5737    0.4755 H         1 UNK         0.0769 
    122 H122       32.9548   30.1963   -0.2649 H         1 UNK         0.0811 
    123 H123       31.7661   30.9992   -1.2791 H         1 UNK         0.0811 
    124 H124       31.2418   29.9138    0.0076 H         1 UNK         0.0811 
    125 H125       34.1370   31.5453    1.9845 H         1 UNK         0.3204 
    126 H126       32.9700   31.0921    4.6573 H         1 UNK         0.0748 
    127 H127       35.3108   31.3764    5.4068 H         1 UNK         0.0771 
    128 H128       35.8639   31.4746    3.7401 H         1 UNK         0.0771 
    129 H129       34.8132   32.7263    4.4024 H         1 UNK         0.0771 
    130 H130       32.0836   29.0179    3.3521 H         1 UNK         0.2980 
    131 H131       31.9381   26.8178    3.2506 H         1 UNK         0.0545 
    132 H132       34.2247   28.2782    1.5379 H         1 UNK         0.3459 
    133 H133       34.9501   26.8797    0.7859 H         1 UNK         0.3459 
    134 H134       34.1520   26.7322    5.3658 H         1 UNK         0.0616 
    135 H135       33.2826   25.3375    4.8325 H         1 UNK         0.0616 
    136 H136       30.9937   25.1938    7.7242 H         1 UNK         0.0634 
    137 H137       32.3537   24.5117    6.8770 H         1 UNK         0.0634 
@<TRIPOS>BOND
     1    1    2 1    
     2    1   72 1    
     3    1   73 1    
     4    1   74 1    
     5    2    3 2    
     6    2    4 am   BACKBONE|DICT|INTERRES
     7    4    5 1    
     8    4   75 1    
     9    5    6 1    
    10    5   35 1    
    11    5   76 1    
    12    6    7 1    
    13    6   77 1    
    14    6   78 1    
    15    7    8 1    
    16    8    9 1    
    17    8   79 1    
    18    8   80 1    
    19    9   10 ar   
    20    9   14 ar   
    21   10   11 ar   
    22   10   81 1    
    23   11   12 ar   
    24   11   71 1    
    25   12   13 ar   
    26   12   82 1    
    27   13   14 ar   
    28   13   15 1    
    29   14   83 1    
    30   15   16 1    
    31   15   84 1    
    32   15   85 1    
    33   16   17 1    
    34   17   18 1    
    35   17   86 1    
    36   17   87 1    
    37   18   19 1    
    38   18   37 1    
    39   18   88 1    
    40   19   20 am   BACKBONE|DICT|INTERRES
    41   19   89 1    
    42   20   21 2    
    43   20   22 1    
    44   22   23 1    
    45   22   24 1    
    46   22   90 1    
    47   23   91 1    
    48   23   92 1    
    49   23   93 1    
    50   24   25 am   BACKBONE|DICT|INTERRES
    51   24   94 1    
    52   25   26 2    
    53   25   27 1    
    54   27   28 1    
    55   27   29 1    
    56   27   95 1    
    57   28   96 1    
    58   28   97 1    
    59   28   98 1    
    60   29   30 am   BACKBONE|DICT|INTERRES
    61   29   99 1    
    62   30   31 2    
    63   30   32 1    
    64   32   33 1    
    65   32   34 1    
    66   32  100 1    
    67   33  101 1    
    68   33  102 1    
    69   33  103 1    
    70   34   35 am   BACKBONE|DICT|INTERRES
    71   34  104 1    
    72   35   36 2    
    73   37   38 2    
    74   37   39 am   BACKBONE|DICT|INTERRES
    75   39   40 1    
    76   39  105 1    
    77   40   41 1    
    78   40   42 1    
    79   40  106 1    
    80   41  107 1    
    81   41  108 1    
    82   41  109 1    
    83   42   43 2    
    84   42   44 am   BACKBONE|DICT|INTERRES
    85   44   45 1    
    86   44  110 1    
    87   45   46 1    
    88   45   47 1    
    89   45  111 1    
    90   46  112 1    
    91   46  113 1    
    92   46  114 1    
    93   47   48 2    
    94   47   49 am   BACKBONE|DICT|INTERRES
    95   49   50 1    
    96   49  115 1    
    97   50   51 1    
    98   50   52 1    
    99   50  116 1    
   100   51  117 1    
   101   51  118 1    
   102   51  119 1    
   103   52   53 2    
   104   52   54 am   BACKBONE|DICT|INTERRES
   105   54   55 1    
   106   54  120 1    
   107   55   56 1    
   108   55   57 1    
   109   55  121 1    
   110   56  122 1    
   111   56  123 1    
   112   56  124 1    
   113   57   58 2    
   114   57   59 am   BACKBONE|DICT|INTERRES
   115   59   60 1    
   116   59  125 1    
   117   60   61 1    
   118   60   62 1    
   119   60  126 1    
   120   61  127 1    
   121   61  128 1    
   122   61  129 1    
   123   62   63 2    
   124   62   64 am   BACKBONE|DICT|INTERRES
   125   64   65 1    
   126   64  130 1    
   127   65   66 1    
   128   65   69 1    
   129   65  131 1    
   130   66   67 am   BACKBONE|DICT|INTERRES
   131   66   68 2    
   132   67  132 1    
   133   67  133 1    
   134   69   70 1    
   135   69  134 1    
   136   69  135 1    
   137   70   71 1    
   138   71  136 1    
   139   71  137 1    
@<TRIPOS>SUBSTRUCTURE
     1 UNK         1 GROUP             0       ****    0 ROOT    
