@<TRIPOS>MOLECULE
3R136
137   139    1
SMALL
USER_CHARGES


@<TRIPOS>ATOM
      1 CA         34.3589   27.6287    0.5883 C.3       0 UNK        -0.1979 
      2 C          33.3725   26.4768    0.7220 C.2       0 UNK         0.4864 
      3 O          33.5342   25.6363    1.6038 O.2       0 UNK        -0.5359 
      4 N          32.3610   26.4375   -0.1502 N.am      1 UNK        -0.4318 
      5 CA         31.2435   25.4955   -0.1641 C.3       1 UNK         0.0824 
      6 C6         31.6802   24.0647   -0.5846 C.3       12 UNK        -0.0944 
      7 S7         30.3606   22.8058   -0.4458 S.3       12 UNK        -0.2672 
      8 C8         30.8715   21.8457    1.0140 C.3       12 UNK         0.0333 
      9 C9         30.3806   22.4750    2.3093 C.ar      12 UNK        -0.0807 
     10 C10        31.1435   23.4546    2.9506 C.ar      12 UNK        -0.0894 
     11 C11        30.7080   24.0234    4.1502 C.ar      12 UNK        -0.0804 
     12 C12        29.5058   23.5917    4.7183 C.ar      12 UNK        -0.0824 
     13 C13        28.7337   22.6079    4.0902 C.ar      12 UNK        -0.0762 
     14 C14        29.1744   22.0574    2.8826 C.ar      12 UNK        -0.0782 
     15 C15        27.4389   22.1203    4.7316 C.3       12 UNK         0.0230 
     16 S16        25.9485   22.7583    3.8958 S.3       12 UNK        -0.2608 
     17 C17        26.1755   24.5584    4.0650 C.3       12 UNK        -0.0989 
     18 CA         26.5102   25.2021    2.6897 C.3       5 UNK         0.0716 
     19 N          25.3465   25.4715    1.8397 N.am      5 UNK        -0.4135 
     20 C          24.2952   26.2626    2.1048 C.2       4 UNK         0.5031 
     21 O          24.1345   26.8332    3.1858 O.2       4 UNK        -0.5229 
     22 CA         23.2620   26.4926    0.9807 C.3       4 UNK         0.0329 
     23 CB         22.8602   27.9766    0.8917 C.3       4 UNK        -0.2001 
     24 N          23.7538   26.0669   -0.3316 N.am      4 UNK        -0.4303 
     25 C          23.5747   24.8581   -0.8814 C.2       3 UNK         0.5044 
     26 O          22.8854   23.9697   -0.3808 O.2       3 UNK        -0.5152 
     27 CA         24.3333   24.5821   -2.1958 C.3       3 UNK         0.0319 
     28 CB         23.4326   24.8686   -3.4079 C.3       3 UNK        -0.2001 
     29 N          25.5822   25.3476   -2.3244 N.am      3 UNK        -0.4354 
     30 C          26.6322   25.2294   -1.4994 C.2       2 UNK         0.4964 
     31 O          26.6754   24.4280   -0.5628 O.2       2 UNK        -0.5047 
     32 CA         27.7865   26.2139   -1.7120 C.3       2 UNK         0.0288 
     33 CB         27.3725   27.6418   -1.3054 C.3       2 UNK        -0.2113 
     34 N          28.9221   25.7825   -0.9037 N.am      2 UNK        -0.4145 
     35 C          30.1998   26.0992   -1.1229 C.2       1 UNK         0.5006 
     36 O          30.5733   26.8368   -2.0418 O.2       1 UNK        -0.5103 
     37 C          27.4126   26.4406    2.8131 C.2       5 UNK         0.5055 
     38 O          28.4986   26.4384    2.2350 O.2       5 UNK        -0.5220 
     39 N          26.9461   27.4557    3.5554 N.am      6 UNK        -0.4450 
     40 CA         27.6623   28.6931    3.8784 C.3       6 UNK         0.0367 
     41 CB         26.7597   29.5893    4.7409 C.3       6 UNK        -0.1929 
     42 C          28.1428   29.4499    2.6290 C.2       6 UNK         0.5070 
     43 O          27.3741   29.6132    1.6787 O.2       6 UNK        -0.5237 
     44 N          29.3999   29.8994    2.6635 N.am      7 UNK        -0.4739 
     45 CA         30.1090   30.4985    1.5380 C.3       7 UNK         0.0276 
     46 CB         30.7306   29.3708    0.6933 C.3       7 UNK        -0.1927 
     47 C          31.1779   31.4744    2.0480 C.2       7 UNK         0.5013 
     48 O          31.3581   31.6194    3.2617 O.2       7 UNK        -0.5193 
     49 N          31.8674   32.1207    1.0977 N.am      8 UNK        -0.4253 
     50 CA         32.9563   33.0778    1.3136 C.3       8 UNK         0.0242 
     51 CB         33.4549   33.5738   -0.0543 C.3       8 UNK        -0.2000 
     52 C          34.1287   32.5074    2.1329 C.2       8 UNK         0.4948 
     53 O          34.3302   31.2906    2.1650 O.2       8 UNK        -0.5275 
     54 N          34.8743   33.4167    2.7792 N.am      9 UNK        -0.4246 
     55 CA         35.9850   33.1490    3.7045 C.3       9 UNK         0.0261 
     56 CB         37.1873   32.5263    2.9616 C.3       9 UNK        -0.1959 
     57 C          35.5435   32.3257    4.9316 C.2       9 UNK         0.5033 
     58 O          36.2769   31.4405    5.3762 O.2       9 UNK        -0.5390 
     59 N          34.3306   32.6170    5.4312 N.am      10 UNK        -0.4215 
     60 CA         33.6450   31.9604    6.5533 C.3       10 UNK         0.0240 
     61 CB         34.3209   32.3383    7.8889 C.3       10 UNK        -0.1982 
     62 C          33.4951   30.4354    6.3700 C.2       10 UNK         0.4970 
     63 O          33.6078   29.6876    7.3432 O.2       10 UNK        -0.4916 
     64 N          33.2616   30.0058    5.1219 N.am      11 UNK        -0.4279 
     65 CA         33.2150   28.5998    4.6936 C.3       11 UNK         0.1003 
     66 C          34.5892   27.8593    4.7692 C.2       11 UNK         0.5709 
     67 N          35.7181   28.5537    4.8654 N.am      11 UNK        -0.7358 
     68 O          34.6478   26.6341    4.7306 O.2       11 UNK        -0.4999 
     69 C69        32.0426   27.8225    5.3678 C.3       12 UNK        -0.0954 
     70 S70        31.1400   26.7493    4.2069 S.3       12 UNK        -0.2268 
     71 C71        31.5426   25.0931    4.8392 C.3       12 UNK         0.0203 
     72 H72        35.3671   27.2444    0.4370 H         1 UNK         0.0888 
     73 H73        34.1146   28.2809   -0.2501 H         1 UNK         0.0888 
     74 H74        34.3579   28.2331    1.4953 H         1 UNK         0.0888 
     75 H75        32.2763   27.1415   -0.8748 H         1 UNK         0.3017 
     76 H76        30.8153   25.4707    0.8410 H         1 UNK         0.0873 
     77 H77        32.5307   23.7414    0.0156 H         1 UNK         0.0745 
     78 H78        32.0397   24.0676   -1.6153 H         1 UNK         0.0745 
     79 H79        31.9561   21.7292    1.0319 H         1 UNK         0.0705 
     80 H80        30.4667   20.8369    0.9200 H         1 UNK         0.0705 
     81 H81        32.0773   23.7788    2.5142 H         1 UNK         0.1334 
     82 H82        29.1738   24.0231    5.6527 H         1 UNK         0.1417 
     83 H83        28.5796   21.2977    2.3934 H         1 UNK         0.1562 
     84 H84        27.4027   22.3994    5.7859 H         1 UNK         0.0748 
     85 H85        27.4140   21.0299    4.7084 H         1 UNK         0.0748 
     86 H86        26.9624   24.7466    4.7964 H         1 UNK         0.0940 
     87 H87        25.2744   24.9820    4.5079 H         1 UNK         0.0940 
     88 H88        27.1094   24.4816    2.1291 H         1 UNK         0.0703 
     89 H89        25.4178   25.0604    0.9160 H         1 UNK         0.3081 
     90 H90        22.3719   25.9165    1.2418 H         1 UNK         0.0719 
     91 H91        23.7214   28.6164    0.6937 H         1 UNK         0.0809 
     92 H92        22.1279   28.1432    0.1015 H         1 UNK         0.0809 
     93 H93        22.4078   28.3188    1.8235 H         1 UNK         0.0809 
     94 H94        24.3354   26.7275   -0.8264 H         1 UNK         0.2990 
     95 H95        24.5924   23.5212   -2.2053 H         1 UNK         0.0690 
     96 H96        23.9242   24.5953   -4.3418 H         1 UNK         0.0788 
     97 H97        23.1569   25.9223   -3.4677 H         1 UNK         0.0788 
     98 H98        22.5077   24.2927   -3.3510 H         1 UNK         0.0788 
     99 H99        25.6208   26.0276   -3.0710 H         1 UNK         0.2993 
    100 H100       28.0661   26.1914   -2.7676 H         1 UNK         0.0949 
    101 H101       28.1879   28.3503   -1.4517 H         1 UNK         0.0767 
    102 H102       26.5303   28.0000   -1.8981 H         1 UNK         0.0767 
    103 H103       27.0805   27.6883   -0.2552 H         1 UNK         0.0767 
    104 H104       28.6836   25.1376   -0.1585 H         1 UNK         0.3013 
    105 H105       25.9836   27.3881    3.8686 H         1 UNK         0.3121 
    106 H106       28.5341   28.4097    4.4713 H         1 UNK         0.0774 
    107 H107       27.2728   30.5121    5.0149 H         1 UNK         0.0815 
    108 H108       25.8477   29.8677    4.2110 H         1 UNK         0.0815 
    109 H109       26.4724   29.0917    5.6673 H         1 UNK         0.0815 
    110 H110       29.9480   29.8157    3.5098 H         1 UNK         0.2987 
    111 H111       29.4059   31.0693    0.9272 H         1 UNK         0.0949 
    112 H112       31.2257   29.7535   -0.1994 H         1 UNK         0.0806 
    113 H113       31.4680   28.8110    1.2691 H         1 UNK         0.0806 
    114 H114       29.9684   28.6669    0.3596 H         1 UNK         0.0806 
    115 H115       31.6530   31.9129    0.1338 H         1 UNK         0.3010 
    116 H116       32.5362   33.9227    1.8633 H         1 UNK         0.0829 
    117 H117       32.6526   34.0411   -0.6259 H         1 UNK         0.0813 
    118 H118       34.2432   34.3195    0.0581 H         1 UNK         0.0813 
    119 H119       33.8636   32.7582   -0.6527 H         1 UNK         0.0813 
    120 H120       34.6338   34.3926    2.6660 H         1 UNK         0.3038 
    121 H121       36.3053   34.1176    4.0913 H         1 UNK         0.0769 
    122 H122       38.0551   32.4511    3.6179 H         1 UNK         0.0811 
    123 H123       37.4818   33.1319    2.1046 H         1 UNK         0.0811 
    124 H124       36.9662   31.5207    2.6021 H         1 UNK         0.0811 
    125 H125       33.8025   33.3441    4.9688 H         1 UNK         0.3204 
    126 H126       32.6301   32.3608    6.5703 H         1 UNK         0.0748 
    127 H127       33.7519   31.9593    8.7389 H         1 UNK         0.0771 
    128 H128       35.3283   31.9266    7.9614 H         1 UNK         0.0771 
    129 H129       34.3917   33.4197    8.0060 H         1 UNK         0.0771 
    130 H130       33.1684   30.6882    4.3795 H         1 UNK         0.2980 
    131 H131       33.0036   28.6681    3.6259 H         1 UNK         0.0545 
    132 H132       36.5918   28.0552    4.9092 H         1 UNK         0.3459 
    133 H133       35.7152   29.5651    4.9440 H         1 UNK         0.3459 
    134 H134       32.3849   27.2543    6.2345 H         1 UNK         0.0616 
    135 H135       31.2989   28.5191    5.7579 H         1 UNK         0.0616 
    136 H136       32.6039   24.8956    4.6836 H         1 UNK         0.0634 
    137 H137       31.3734   25.0626    5.9165 H         1 UNK         0.0634 
@<TRIPOS>BOND
     1    1    2 1    
     2    1   72 1    
     3    1   73 1    
     4    1   74 1    
     5    2    3 2    
     6    2    4 am   BACKBONE|DICT|INTERRES
     7    4    5 1    
     8    4   75 1    
     9    5    6 1    
    10    5   35 1    
    11    5   76 1    
    12    6    7 1    
    13    6   77 1    
    14    6   78 1    
    15    7    8 1    
    16    8    9 1    
    17    8   79 1    
    18    8   80 1    
    19    9   10 ar   
    20    9   14 ar   
    21   10   11 ar   
    22   10   81 1    
    23   11   12 ar   
    24   11   71 1    
    25   12   13 ar   
    26   12   82 1    
    27   13   14 ar   
    28   13   15 1    
    29   14   83 1    
    30   15   16 1    
    31   15   84 1    
    32   15   85 1    
    33   16   17 1    
    34   17   18 1    
    35   17   86 1    
    36   17   87 1    
    37   18   19 1    
    38   18   37 1    
    39   18   88 1    
    40   19   20 am   BACKBONE|DICT|INTERRES
    41   19   89 1    
    42   20   21 2    
    43   20   22 1    
    44   22   23 1    
    45   22   24 1    
    46   22   90 1    
    47   23   91 1    
    48   23   92 1    
    49   23   93 1    
    50   24   25 am   BACKBONE|DICT|INTERRES
    51   24   94 1    
    52   25   26 2    
    53   25   27 1    
    54   27   28 1    
    55   27   29 1    
    56   27   95 1    
    57   28   96 1    
    58   28   97 1    
    59   28   98 1    
    60   29   30 am   BACKBONE|DICT|INTERRES
    61   29   99 1    
    62   30   31 2    
    63   30   32 1    
    64   32   33 1    
    65   32   34 1    
    66   32  100 1    
    67   33  101 1    
    68   33  102 1    
    69   33  103 1    
    70   34   35 am   BACKBONE|DICT|INTERRES
    71   34  104 1    
    72   35   36 2    
    73   37   38 2    
    74   37   39 am   BACKBONE|DICT|INTERRES
    75   39   40 1    
    76   39  105 1    
    77   40   41 1    
    78   40   42 1    
    79   40  106 1    
    80   41  107 1    
    81   41  108 1    
    82   41  109 1    
    83   42   43 2    
    84   42   44 am   BACKBONE|DICT|INTERRES
    85   44   45 1    
    86   44  110 1    
    87   45   46 1    
    88   45   47 1    
    89   45  111 1    
    90   46  112 1    
    91   46  113 1    
    92   46  114 1    
    93   47   48 2    
    94   47   49 am   BACKBONE|DICT|INTERRES
    95   49   50 1    
    96   49  115 1    
    97   50   51 1    
    98   50   52 1    
    99   50  116 1    
   100   51  117 1    
   101   51  118 1    
   102   51  119 1    
   103   52   53 2    
   104   52   54 am   BACKBONE|DICT|INTERRES
   105   54   55 1    
   106   54  120 1    
   107   55   56 1    
   108   55   57 1    
   109   55  121 1    
   110   56  122 1    
   111   56  123 1    
   112   56  124 1    
   113   57   58 2    
   114   57   59 am   BACKBONE|DICT|INTERRES
   115   59   60 1    
   116   59  125 1    
   117   60   61 1    
   118   60   62 1    
   119   60  126 1    
   120   61  127 1    
   121   61  128 1    
   122   61  129 1    
   123   62   63 2    
   124   62   64 am   BACKBONE|DICT|INTERRES
   125   64   65 1    
   126   64  130 1    
   127   65   66 1    
   128   65   69 1    
   129   65  131 1    
   130   66   67 am   BACKBONE|DICT|INTERRES
   131   66   68 2    
   132   67  132 1    
   133   67  133 1    
   134   69   70 1    
   135   69  134 1    
   136   69  135 1    
   137   70   71 1    
   138   71  136 1    
   139   71  137 1    
@<TRIPOS>SUBSTRUCTURE
     1 UNK         1 GROUP             0       ****    0 ROOT    
