@<TRIPOS>MOLECULE
3R136
137   139    1
SMALL
USER_CHARGES


@<TRIPOS>ATOM
      1 CA         30.7175   25.4239   -4.7810 C.3       0 UNK        -0.1979 
      2 C          30.1074   25.8637   -3.4585 C.2       0 UNK         0.4864 
      3 O          29.8879   27.0579   -3.2550 O.2       0 UNK        -0.5359 
      4 N          29.8415   24.9083   -2.5583 N.am      1 UNK        -0.4318 
      5 CA         29.2412   25.1195   -1.2361 C.3       1 UNK         0.0824 
      6 C6         29.3419   23.8549   -0.3394 C.3       12 UNK        -0.0944 
      7 S7         31.0204   23.1334   -0.3208 S.3       12 UNK        -0.2672 
      8 C8         31.0309   22.1826    1.2374 C.3       12 UNK         0.0333 
      9 C9         31.5537   22.9453    2.4552 C.ar      12 UNK        -0.0807 
     10 C10        32.5320   23.9435    2.3415 C.ar      12 UNK        -0.0894 
     11 C11        33.0264   24.5884    3.4783 C.ar      12 UNK        -0.0804 
     12 C12        32.5562   24.2202    4.7388 C.ar      12 UNK        -0.0824 
     13 C13        31.5798   23.2306    4.8706 C.ar      12 UNK        -0.0762 
     14 C14        31.0859   22.5944    3.7273 C.ar      12 UNK        -0.0782 
     15 C15        31.0458   22.8735    6.2503 C.3       12 UNK         0.0230 
     16 S16        29.4199   23.6328    6.5699 S.3       12 UNK        -0.2608 
     17 C17        29.7523   25.4049    6.2660 C.3       12 UNK        -0.0989 
     18 CA         29.3006   25.8373    4.8465 C.3       5 UNK         0.0716 
     19 N          27.8571   25.6310    4.6702 N.am      5 UNK        -0.4135 
     20 C          27.2031   25.5457    3.5068 C.2       4 UNK         0.5031 
     21 O          27.7533   25.6256    2.4012 O.2       4 UNK        -0.5229 
     22 CA         25.6789   25.3939    3.5930 C.3       4 UNK         0.0329 
     23 CB         25.0420   26.6454    4.2362 C.3       4 UNK        -0.2001 
     24 N          25.1937   25.2213    2.2309 N.am      4 UNK        -0.4303 
     25 C          23.9528   24.9503    1.8176 C.2       3 UNK         0.5044 
     26 O          23.0185   24.6935    2.5791 O.2       3 UNK        -0.5152 
     27 CA         23.7227   24.9638    0.2900 C.3       3 UNK         0.0319 
     28 CB         22.3041   25.4413   -0.0862 C.3       3 UNK        -0.2001 
     29 N          24.7413   25.7168   -0.4615 N.am      3 UNK        -0.4354 
     30 C          25.0482   27.0197   -0.3622 C.2       2 UNK         0.4964 
     31 O          24.4764   27.8028    0.3979 O.2       2 UNK        -0.5047 
     32 CA         26.2089   27.5178   -1.2483 C.3       2 UNK         0.0288 
     33 CB         26.4517   29.0332   -1.1110 C.3       2 UNK        -0.2113 
     34 N          27.4768   26.8217   -0.9982 N.am      2 UNK        -0.4145 
     35 C          27.7805   25.5823   -1.4085 C.2       1 UNK         0.5006 
     36 O          26.9689   24.8251   -1.9485 O.2       1 UNK        -0.5103 
     37 C          29.7129   27.2870    4.4975 C.2       5 UNK         0.5055 
     38 O          30.2302   28.0179    5.3466 O.2       5 UNK        -0.5220 
     39 N          29.4332   27.6796    3.2509 N.am      6 UNK        -0.4450 
     40 CA         29.4941   29.0426    2.7366 C.3       6 UNK         0.0367 
     41 CB         28.0903   29.6706    2.8360 C.3       6 UNK        -0.1929 
     42 C          30.0601   29.0785    1.3082 C.2       6 UNK         0.5070 
     43 O          29.6497   29.9219    0.5116 O.2       6 UNK        -0.5237 
     44 N          31.0100   28.1814    1.0005 N.am      7 UNK        -0.4739 
     45 CA         31.7431   28.1530   -0.2754 C.3       7 UNK         0.0276 
     46 CB         32.6131   26.8872   -0.3535 C.3       7 UNK        -0.1927 
     47 C          32.6052   29.4091   -0.5029 C.2       7 UNK         0.5013 
     48 O          32.7632   29.8389   -1.6456 O.2       7 UNK        -0.5193 
     49 N          33.1064   29.9909    0.5938 N.am      8 UNK        -0.4253 
     50 CA         33.7423   31.3046    0.6407 C.3       8 UNK         0.0242 
     51 CB         35.2510   31.1522    0.9113 C.3       8 UNK        -0.2000 
     52 C          33.0136   32.1452    1.6986 C.2       8 UNK         0.4948 
     53 O          33.6044   32.5181    2.7135 O.2       8 UNK        -0.5275 
     54 N          31.7144   32.3783    1.4596 N.am      9 UNK        -0.4246 
     55 CA         30.7542   33.1818    2.2338 C.3       9 UNK         0.0261 
     56 CB         31.1962   34.6558    2.3212 C.3       9 UNK        -0.1959 
     57 C          30.3960   32.6337    3.6278 C.2       9 UNK         0.5033 
     58 O          29.2161   32.6321    3.9783 O.2       9 UNK        -0.5390 
     59 N          31.3932   32.1782    4.3908 N.am      10 UNK        -0.4215 
     60 CA         31.2575   31.6110    5.7319 C.3       10 UNK         0.0240 
     61 CB         30.9272   32.7148    6.7610 C.3       10 UNK        -0.1982 
     62 C          32.5415   30.8439    6.0728 C.2       10 UNK         0.4970 
     63 O          33.2416   31.2008    7.0224 O.2       10 UNK        -0.4916 
     64 N          32.8537   29.8293    5.2591 N.am      11 UNK        -0.4279 
     65 CA         34.0340   28.9686    5.4280 C.3       11 UNK         0.1003 
     66 C          33.8874   27.8856    6.5359 C.2       11 UNK         0.5709 
     67 N          32.6830   27.5683    6.9965 N.am      11 UNK        -0.7358 
     68 O          34.8870   27.3389    6.9953 O.2       11 UNK        -0.4999 
     69 C69        34.5050   28.3788    4.0747 C.3       12 UNK        -0.0954 
     70 S70        33.2597   27.3155    3.2735 S.3       12 UNK        -0.2268 
     71 C71        34.0652   25.6886    3.3610 C.3       12 UNK         0.0203 
     72 H72        31.6827   25.9079   -4.9275 H         1 UNK         0.0888 
     73 H73        30.8695   24.3454   -4.8215 H         1 UNK         0.0888 
     74 H74        30.0651   25.7060   -5.6069 H         1 UNK         0.0888 
     75 H75        30.0434   23.9447   -2.7836 H         1 UNK         0.3017 
     76 H76        29.7965   25.9189   -0.7448 H         1 UNK         0.0873 
     77 H77        28.6535   23.0782   -0.6788 H         1 UNK         0.0745 
     78 H78        29.0527   24.0974    0.6843 H         1 UNK         0.0745 
     79 H79        30.0258   21.8017    1.4257 H         1 UNK         0.0705 
     80 H80        31.6667   21.3082    1.0942 H         1 UNK         0.0705 
     81 H81        32.9191   24.2199    1.3712 H         1 UNK         0.1334 
     82 H82        32.9390   24.7225    5.6171 H         1 UNK         0.1417 
     83 H83        30.3331   21.8247    3.8324 H         1 UNK         0.1562 
     84 H84        31.7452   23.1859    7.0275 H         1 UNK         0.0748 
     85 H85        30.9559   21.7899    6.3395 H         1 UNK         0.0748 
     86 H86        30.8134   25.6002    6.4173 H         1 UNK         0.0940 
     87 H87        29.2336   25.9903    7.0275 H         1 UNK         0.0940 
     88 H88        29.8132   25.2031    4.1216 H         1 UNK         0.0703 
     89 H89        27.3250   25.5629    5.5251 H         1 UNK         0.3081 
     90 H90        25.4416   24.5015    4.1750 H         1 UNK         0.0719 
     91 H91        25.4056   26.8052    5.2516 H         1 UNK         0.0809 
     92 H92        25.2652   27.5464    3.6626 H         1 UNK         0.0809 
     93 H93        23.9578   26.5565    4.3030 H         1 UNK         0.0809 
     94 H94        25.9159   25.3795    1.5379 H         1 UNK         0.2990 
     95 H95        23.8177   23.9265   -0.0340 H         1 UNK         0.0690 
     96 H96        22.1542   25.4283   -1.1657 H         1 UNK         0.0788 
     97 H97        22.1116   26.4546    0.2677 H         1 UNK         0.0788 
     98 H98        21.5429   24.7947    0.3520 H         1 UNK         0.0788 
     99 H99        25.3211   25.1664   -1.0920 H         1 UNK         0.2993 
    100 H100       25.9153   27.3272   -2.2831 H         1 UNK         0.0949 
    101 H101       26.7619   29.3039   -0.1012 H         1 UNK         0.0767 
    102 H102       27.2256   29.3750   -1.7990 H         1 UNK         0.0767 
    103 H103       25.5467   29.5984   -1.3380 H         1 UNK         0.0767 
    104 H104       28.2021   27.3775   -0.5695 H         1 UNK         0.3013 
    105 H105       28.9785   26.9928    2.6510 H         1 UNK         0.3121 
    106 H106       30.1785   29.6335    3.3464 H         1 UNK         0.0774 
    107 H107       28.0757   30.6858    2.4381 H         1 UNK         0.0815 
    108 H108       27.3508   29.0910    2.2824 H         1 UNK         0.0815 
    109 H109       27.7597   29.7311    3.8729 H         1 UNK         0.0815 
    110 H110       31.3128   27.5328    1.7158 H         1 UNK         0.2987 
    111 H111       31.0054   28.1165   -1.0792 H         1 UNK         0.0949 
    112 H112       32.0393   25.9866   -0.1428 H         1 UNK         0.0806 
    113 H113       33.0362   26.7731   -1.3523 H         1 UNK         0.0806 
    114 H114       33.4474   26.9211    0.3472 H         1 UNK         0.0806 
    115 H115       32.9258   29.5498    1.4843 H         1 UNK         0.3010 
    116 H116       33.6223   31.8236   -0.3130 H         1 UNK         0.0829 
    117 H117       35.4526   30.6917    1.8769 H         1 UNK         0.0813 
    118 H118       35.7439   32.1252    0.9089 H         1 UNK         0.0813 
    119 H119       35.7301   30.5443    0.1439 H         1 UNK         0.0813 
    120 H120       31.3194   31.9485    0.6324 H         1 UNK         0.3038 
    121 H121       29.8307   33.1563    1.6526 H         1 UNK         0.0769 
    122 H122       31.3564   35.0811    1.3305 H         1 UNK         0.0811 
    123 H123       32.1189   34.7739    2.8901 H         1 UNK         0.0811 
    124 H124       30.4340   35.2613    2.8137 H         1 UNK         0.0811 
    125 H125       32.3385   32.2383    4.0102 H         1 UNK         0.3204 
    126 H126       30.4407   30.8857    5.7270 H         1 UNK         0.0748 
    127 H127       31.6910   33.4931    6.7739 H         1 UNK         0.0771 
    128 H128       29.9699   33.1901    6.5476 H         1 UNK         0.0771 
    129 H129       30.8603   32.3025    7.7686 H         1 UNK         0.0771 
    130 H130       32.1961   29.5418    4.5510 H         1 UNK         0.2980 
    131 H131       34.8483   29.6111    5.7690 H         1 UNK         0.0545 
    132 H132       32.6030   26.8903    7.7359 H         1 UNK         0.3459 
    133 H133       31.8512   27.9591    6.5686 H         1 UNK         0.3459 
    134 H134       35.4454   27.8389    4.1970 H         1 UNK         0.0616 
    135 H135       34.7291   29.1933    3.3883 H         1 UNK         0.0616 
    136 H136       34.7344   25.6437    4.2217 H         1 UNK         0.0634 
    137 H137       34.6863   25.5440    2.4759 H         1 UNK         0.0634 
@<TRIPOS>BOND
     1    1    2 1    
     2    1   72 1    
     3    1   73 1    
     4    1   74 1    
     5    2    3 2    
     6    2    4 am   BACKBONE|DICT|INTERRES
     7    4    5 1    
     8    4   75 1    
     9    5    6 1    
    10    5   35 1    
    11    5   76 1    
    12    6    7 1    
    13    6   77 1    
    14    6   78 1    
    15    7    8 1    
    16    8    9 1    
    17    8   79 1    
    18    8   80 1    
    19    9   10 ar   
    20    9   14 ar   
    21   10   11 ar   
    22   10   81 1    
    23   11   12 ar   
    24   11   71 1    
    25   12   13 ar   
    26   12   82 1    
    27   13   14 ar   
    28   13   15 1    
    29   14   83 1    
    30   15   16 1    
    31   15   84 1    
    32   15   85 1    
    33   16   17 1    
    34   17   18 1    
    35   17   86 1    
    36   17   87 1    
    37   18   19 1    
    38   18   37 1    
    39   18   88 1    
    40   19   20 am   BACKBONE|DICT|INTERRES
    41   19   89 1    
    42   20   21 2    
    43   20   22 1    
    44   22   23 1    
    45   22   24 1    
    46   22   90 1    
    47   23   91 1    
    48   23   92 1    
    49   23   93 1    
    50   24   25 am   BACKBONE|DICT|INTERRES
    51   24   94 1    
    52   25   26 2    
    53   25   27 1    
    54   27   28 1    
    55   27   29 1    
    56   27   95 1    
    57   28   96 1    
    58   28   97 1    
    59   28   98 1    
    60   29   30 am   BACKBONE|DICT|INTERRES
    61   29   99 1    
    62   30   31 2    
    63   30   32 1    
    64   32   33 1    
    65   32   34 1    
    66   32  100 1    
    67   33  101 1    
    68   33  102 1    
    69   33  103 1    
    70   34   35 am   BACKBONE|DICT|INTERRES
    71   34  104 1    
    72   35   36 2    
    73   37   38 2    
    74   37   39 am   BACKBONE|DICT|INTERRES
    75   39   40 1    
    76   39  105 1    
    77   40   41 1    
    78   40   42 1    
    79   40  106 1    
    80   41  107 1    
    81   41  108 1    
    82   41  109 1    
    83   42   43 2    
    84   42   44 am   BACKBONE|DICT|INTERRES
    85   44   45 1    
    86   44  110 1    
    87   45   46 1    
    88   45   47 1    
    89   45  111 1    
    90   46  112 1    
    91   46  113 1    
    92   46  114 1    
    93   47   48 2    
    94   47   49 am   BACKBONE|DICT|INTERRES
    95   49   50 1    
    96   49  115 1    
    97   50   51 1    
    98   50   52 1    
    99   50  116 1    
   100   51  117 1    
   101   51  118 1    
   102   51  119 1    
   103   52   53 2    
   104   52   54 am   BACKBONE|DICT|INTERRES
   105   54   55 1    
   106   54  120 1    
   107   55   56 1    
   108   55   57 1    
   109   55  121 1    
   110   56  122 1    
   111   56  123 1    
   112   56  124 1    
   113   57   58 2    
   114   57   59 am   BACKBONE|DICT|INTERRES
   115   59   60 1    
   116   59  125 1    
   117   60   61 1    
   118   60   62 1    
   119   60  126 1    
   120   61  127 1    
   121   61  128 1    
   122   61  129 1    
   123   62   63 2    
   124   62   64 am   BACKBONE|DICT|INTERRES
   125   64   65 1    
   126   64  130 1    
   127   65   66 1    
   128   65   69 1    
   129   65  131 1    
   130   66   67 am   BACKBONE|DICT|INTERRES
   131   66   68 2    
   132   67  132 1    
   133   67  133 1    
   134   69   70 1    
   135   69  134 1    
   136   69  135 1    
   137   70   71 1    
   138   71  136 1    
   139   71  137 1    
@<TRIPOS>SUBSTRUCTURE
     1 UNK         1 GROUP             0       ****    0 ROOT    
