@<TRIPOS>MOLECULE
3R136
137   139    1
SMALL
USER_CHARGES


@<TRIPOS>ATOM
      1 CA         29.9261   19.4271   -2.6610 C.3       0 UNK        -0.1979 
      2 C          30.0644   20.5416   -1.6343 C.2       0 UNK         0.4864 
      3 O          30.5758   20.3049   -0.5388 O.2       0 UNK        -0.5359 
      4 N          29.6149   21.7523   -1.9789 N.am      1 UNK        -0.4318 
      5 CA         29.6847   22.9509   -1.1479 C.3       1 UNK         0.0824 
      6 C6         28.5597   22.9852   -0.0774 C.3       12 UNK        -0.0944 
      7 S7         28.9703   24.0751    1.3243 S.3       12 UNK        -0.2672 
      8 C8         29.7462   22.8702    2.4406 C.3       12 UNK         0.0333 
      9 C9         30.3146   23.5541    3.6716 C.ar      12 UNK        -0.0807 
     10 C10        31.6520   23.9612    3.6966 C.ar      12 UNK        -0.0894 
     11 C11        32.1832   24.5812    4.8317 C.ar      12 UNK        -0.0804 
     12 C12        31.3635   24.7937    5.9449 C.ar      12 UNK        -0.0824 
     13 C13        30.0283   24.3785    5.9353 C.ar      12 UNK        -0.0762 
     14 C14        29.5079   23.7617    4.7939 C.ar      12 UNK        -0.0782 
     15 C15        29.1638   24.5647    7.1736 C.3       12 UNK         0.0230 
     16 S16        28.4500   26.2355    7.2630 S.3       12 UNK        -0.2608 
     17 C17        27.1412   26.1654    5.9915 C.3       12 UNK        -0.0989 
     18 CA         27.4963   26.9385    4.6948 C.3       5 UNK         0.0716 
     19 N          26.6259   26.5195    3.5839 N.am      5 UNK        -0.4135 
     20 C          26.6622   26.9984    2.3328 C.2       4 UNK         0.5031 
     21 O          27.4181   27.8969    1.9643 O.2       4 UNK        -0.5229 
     22 CA         25.6289   26.4395    1.3507 C.3       4 UNK         0.0329 
     23 CB         24.2411   27.0493    1.6382 C.3       4 UNK        -0.2001 
     24 N          26.0474   26.7574   -0.0142 N.am      4 UNK        -0.4303 
     25 C          25.5395   26.2299   -1.1328 C.2       3 UNK         0.5044 
     26 O          24.6568   25.3709   -1.1416 O.2       3 UNK        -0.5152 
     27 CA         26.1039   26.7263   -2.4762 C.3       3 UNK         0.0319 
     28 CB         25.6625   28.1702   -2.7894 C.3       3 UNK        -0.2001 
     29 N          27.5537   26.5432   -2.6086 N.am      3 UNK        -0.4354 
     30 C          28.5479   27.1744   -1.9696 C.2       2 UNK         0.4964 
     31 O          28.3818   28.0921   -1.1673 O.2       2 UNK        -0.5047 
     32 CA         29.9620   26.6269   -2.2359 C.3       2 UNK         0.0288 
     33 CB         31.0719   27.5668   -1.7307 C.3       2 UNK        -0.2113 
     34 N          30.1106   25.3204   -1.5933 N.am      2 UNK        -0.4145 
     35 C          29.6244   24.1714   -2.0788 C.2       1 UNK         0.5006 
     36 O          29.0995   24.0677   -3.1930 O.2       1 UNK        -0.5103 
     37 C          27.5003   28.4687    4.9333 C.2       5 UNK         0.5055 
     38 O          28.5546   29.0428    5.2064 O.2       5 UNK        -0.5220 
     39 N          26.3269   29.1044    4.7930 N.am      6 UNK        -0.4450 
     40 CA         26.1471   30.5535    4.9188 C.3       6 UNK         0.0367 
     41 CB         24.6462   30.8670    5.0296 C.3       6 UNK        -0.1929 
     42 C          26.7783   31.3598    3.7676 C.2       6 UNK         0.5070 
     43 O          27.1439   32.5165    3.9785 O.2       6 UNK        -0.5237 
     44 N          26.8850   30.7527    2.5783 N.am      7 UNK        -0.4739 
     45 CA         27.5064   31.3500    1.3949 C.3       7 UNK         0.0276 
     46 CB         26.7814   30.8475    0.1374 C.3       7 UNK        -0.1927 
     47 C          29.0111   31.0431    1.3232 C.2       7 UNK         0.5013 
     48 O          29.7695   31.8718    0.8166 O.2       7 UNK        -0.5193 
     49 N          29.4270   29.8852    1.8553 N.am      8 UNK        -0.4253 
     50 CA         30.8023   29.3835    1.9276 C.3       8 UNK         0.0242 
     51 CB         30.7575   27.8749    2.2394 C.3       8 UNK        -0.2000 
     52 C          31.6973   30.1565    2.9210 C.2       8 UNK         0.4948 
     53 O          32.3908   29.5484    3.7386 O.2       8 UNK        -0.5275 
     54 N          31.7175   31.4912    2.8092 N.am      9 UNK        -0.4246 
     55 CA         32.4984   32.4205    3.6363 C.3       9 UNK         0.0261 
     56 CB         32.1195   33.8618    3.2593 C.3       9 UNK        -0.1959 
     57 C          34.0250   32.2216    3.5544 C.2       9 UNK         0.5033 
     58 O          34.7421   32.6797    4.4448 O.2       9 UNK        -0.5390 
     59 N          34.4907   31.5264    2.5079 N.am      10 UNK        -0.4215 
     60 CA         35.8721   31.0834    2.3255 C.3       10 UNK         0.0240 
     61 CB         36.0449   30.5766    0.8838 C.3       10 UNK        -0.1982 
     62 C          36.3222   30.0032    3.3297 C.2       10 UNK         0.4970 
     63 O          37.5313   29.8428    3.5049 O.2       10 UNK        -0.4916 
     64 N          35.3792   29.2854    3.9578 N.am      11 UNK        -0.4279 
     65 CA         35.6601   28.2334    4.9476 C.3       11 UNK         0.1003 
     66 C          34.7754   28.3050    6.2235 C.2       11 UNK         0.5709 
     67 N          33.6139   28.9467    6.2026 N.am      11 UNK        -0.7358 
     68 O          35.1669   27.7849    7.2658 O.2       11 UNK        -0.4999 
     69 C69        35.6815   26.8211    4.3031 C.3       12 UNK        -0.0954 
     70 S70        34.0570   26.2765    3.6681 S.3       12 UNK        -0.2268 
     71 C71        33.6515   24.9795    4.8778 C.3       12 UNK         0.0203 
     72 H72        29.4552   19.7759   -3.5800 H         1 UNK         0.0888 
     73 H73        30.9071   19.0257   -2.9137 H         1 UNK         0.0888 
     74 H74        29.3199   18.6172   -2.2560 H         1 UNK         0.0888 
     75 H75        29.2365   21.9242   -2.9033 H         1 UNK         0.3017 
     76 H76        30.6614   22.9558   -0.6582 H         1 UNK         0.0873 
     77 H77        27.6085   23.3045   -0.5089 H         1 UNK         0.0745 
     78 H78        28.3755   21.9845    0.3165 H         1 UNK         0.0745 
     79 H79        29.0105   22.1198    2.7341 H         1 UNK         0.0705 
     80 H80        30.5357   22.3363    1.9087 H         1 UNK         0.0705 
     81 H81        32.2829   23.7943    2.8342 H         1 UNK         0.1334 
     82 H82        31.7674   25.2679    6.8293 H         1 UNK         0.1417 
     83 H83        28.4771   23.4356    4.7783 H         1 UNK         0.1562 
     84 H84        29.7693   24.3978    8.0658 H         1 UNK         0.0748 
     85 H85        28.3687   23.8183    7.2092 H         1 UNK         0.0748 
     86 H86        26.2148   26.5440    6.4281 H         1 UNK         0.0940 
     87 H87        26.9425   25.1180    5.7618 H         1 UNK         0.0940 
     88 H88        28.5098   26.6586    4.3997 H         1 UNK         0.0703 
     89 H89        25.9556   25.7952    3.7961 H         1 UNK         0.3081 
     90 H90        25.5943   25.3541    1.4646 H         1 UNK         0.0719 
     91 H91        24.2449   28.1323    1.5069 H         1 UNK         0.0809 
     92 H92        23.4769   26.6382    0.9787 H         1 UNK         0.0809 
     93 H93        23.9189   26.8441    2.6596 H         1 UNK         0.0809 
     94 H94        26.8258   27.4110   -0.0849 H         1 UNK         0.2990 
     95 H95        25.6667   26.0893   -3.2469 H         1 UNK         0.0690 
     96 H96        25.9988   28.4801   -3.7787 H         1 UNK         0.0788 
     97 H97        26.0479   28.8880   -2.0664 H         1 UNK         0.0788 
     98 H98        24.5751   28.2534   -2.7757 H         1 UNK         0.0788 
     99 H99        27.8281   25.7516   -3.1813 H         1 UNK         0.2993 
    100 H100       30.0820   26.5191   -3.3165 H         1 UNK         0.0949 
    101 H101       30.9716   28.5607   -2.1690 H         1 UNK         0.0767 
    102 H102       31.0402   27.6832   -0.6485 H         1 UNK         0.0767 
    103 H103       32.0601   27.1919   -1.9977 H         1 UNK         0.0767 
    104 H104       30.4645   25.3273   -0.6468 H         1 UNK         0.3013 
    105 H105       25.5068   28.5605    4.5685 H         1 UNK         0.3121 
    106 H106       26.6312   30.8738    5.8441 H         1 UNK         0.0774 
    107 H107       24.4805   31.9382    5.1536 H         1 UNK         0.0815 
    108 H108       24.1006   30.5550    4.1381 H         1 UNK         0.0815 
    109 H109       24.1983   30.3710    5.8908 H         1 UNK         0.0815 
    110 H110       26.6320   29.7750    2.5040 H         1 UNK         0.2987 
    111 H111       27.3975   32.4363    1.4314 H         1 UNK         0.0949 
    112 H112       26.7824   29.7597    0.0837 H         1 UNK         0.0806 
    113 H113       25.7438   31.1806    0.1190 H         1 UNK         0.0806 
    114 H114       27.2602   31.2198   -0.7693 H         1 UNK         0.0806 
    115 H115       28.7091   29.2379    2.1699 H         1 UNK         0.3010 
    116 H116       31.2484   29.5079    0.9394 H         1 UNK         0.0829 
    117 H117       30.1007   27.3395    1.5534 H         1 UNK         0.0813 
    118 H118       31.7478   27.4280    2.1533 H         1 UNK         0.0813 
    119 H119       30.4027   27.6860    3.2532 H         1 UNK         0.0813 
    120 H120       31.1174   31.8986    2.0948 H         1 UNK         0.3038 
    121 H121       32.2105   32.2498    4.6756 H         1 UNK         0.0769 
    122 H122       32.3586   34.0819    2.2181 H         1 UNK         0.0811 
    123 H123       32.6565   34.5827    3.8776 H         1 UNK         0.0811 
    124 H124       31.0542   34.0428    3.4047 H         1 UNK         0.0811 
    125 H125       33.8191   31.2080    1.8253 H         1 UNK         0.3204 
    126 H126       36.5228   31.9491    2.4661 H         1 UNK         0.0748 
    127 H127       35.8044   31.3532    0.1573 H         1 UNK         0.0771 
    128 H128       37.0757   30.2712    0.6980 H         1 UNK         0.0771 
    129 H129       35.4085   29.7143    0.6796 H         1 UNK         0.0771 
    130 H130       34.3977   29.4616    3.7718 H         1 UNK         0.2980 
    131 H131       36.6667   28.4040    5.3339 H         1 UNK         0.0545 
    132 H132       33.0680   28.9891    7.0472 H         1 UNK         0.3459 
    133 H133       33.2057   29.2649    5.3269 H         1 UNK         0.3459 
    134 H134       36.0656   26.0882    5.0146 H         1 UNK         0.0616 
    135 H135       36.3854   26.8103    3.4698 H         1 UNK         0.0616 
    136 H136       34.2712   24.1031    4.6831 H         1 UNK         0.0634 
    137 H137       33.9146   25.3287    5.8775 H         1 UNK         0.0634 
@<TRIPOS>BOND
     1    1    2 1    
     2    1   72 1    
     3    1   73 1    
     4    1   74 1    
     5    2    3 2    
     6    2    4 am   BACKBONE|DICT|INTERRES
     7    4    5 1    
     8    4   75 1    
     9    5    6 1    
    10    5   35 1    
    11    5   76 1    
    12    6    7 1    
    13    6   77 1    
    14    6   78 1    
    15    7    8 1    
    16    8    9 1    
    17    8   79 1    
    18    8   80 1    
    19    9   10 ar   
    20    9   14 ar   
    21   10   11 ar   
    22   10   81 1    
    23   11   12 ar   
    24   11   71 1    
    25   12   13 ar   
    26   12   82 1    
    27   13   14 ar   
    28   13   15 1    
    29   14   83 1    
    30   15   16 1    
    31   15   84 1    
    32   15   85 1    
    33   16   17 1    
    34   17   18 1    
    35   17   86 1    
    36   17   87 1    
    37   18   19 1    
    38   18   37 1    
    39   18   88 1    
    40   19   20 am   BACKBONE|DICT|INTERRES
    41   19   89 1    
    42   20   21 2    
    43   20   22 1    
    44   22   23 1    
    45   22   24 1    
    46   22   90 1    
    47   23   91 1    
    48   23   92 1    
    49   23   93 1    
    50   24   25 am   BACKBONE|DICT|INTERRES
    51   24   94 1    
    52   25   26 2    
    53   25   27 1    
    54   27   28 1    
    55   27   29 1    
    56   27   95 1    
    57   28   96 1    
    58   28   97 1    
    59   28   98 1    
    60   29   30 am   BACKBONE|DICT|INTERRES
    61   29   99 1    
    62   30   31 2    
    63   30   32 1    
    64   32   33 1    
    65   32   34 1    
    66   32  100 1    
    67   33  101 1    
    68   33  102 1    
    69   33  103 1    
    70   34   35 am   BACKBONE|DICT|INTERRES
    71   34  104 1    
    72   35   36 2    
    73   37   38 2    
    74   37   39 am   BACKBONE|DICT|INTERRES
    75   39   40 1    
    76   39  105 1    
    77   40   41 1    
    78   40   42 1    
    79   40  106 1    
    80   41  107 1    
    81   41  108 1    
    82   41  109 1    
    83   42   43 2    
    84   42   44 am   BACKBONE|DICT|INTERRES
    85   44   45 1    
    86   44  110 1    
    87   45   46 1    
    88   45   47 1    
    89   45  111 1    
    90   46  112 1    
    91   46  113 1    
    92   46  114 1    
    93   47   48 2    
    94   47   49 am   BACKBONE|DICT|INTERRES
    95   49   50 1    
    96   49  115 1    
    97   50   51 1    
    98   50   52 1    
    99   50  116 1    
   100   51  117 1    
   101   51  118 1    
   102   51  119 1    
   103   52   53 2    
   104   52   54 am   BACKBONE|DICT|INTERRES
   105   54   55 1    
   106   54  120 1    
   107   55   56 1    
   108   55   57 1    
   109   55  121 1    
   110   56  122 1    
   111   56  123 1    
   112   56  124 1    
   113   57   58 2    
   114   57   59 am   BACKBONE|DICT|INTERRES
   115   59   60 1    
   116   59  125 1    
   117   60   61 1    
   118   60   62 1    
   119   60  126 1    
   120   61  127 1    
   121   61  128 1    
   122   61  129 1    
   123   62   63 2    
   124   62   64 am   BACKBONE|DICT|INTERRES
   125   64   65 1    
   126   64  130 1    
   127   65   66 1    
   128   65   69 1    
   129   65  131 1    
   130   66   67 am   BACKBONE|DICT|INTERRES
   131   66   68 2    
   132   67  132 1    
   133   67  133 1    
   134   69   70 1    
   135   69  134 1    
   136   69  135 1    
   137   70   71 1    
   138   71  136 1    
   139   71  137 1    
@<TRIPOS>SUBSTRUCTURE
     1 UNK         1 GROUP             0       ****    0 ROOT    
