@<TRIPOS>MOLECULE
3R136
137   139    1
SMALL
USER_CHARGES


@<TRIPOS>ATOM
      1 CA         33.4279   18.9135   -0.5283 C.3       0 UNK        -0.1979 
      2 C          32.8178   20.1247    0.1618 C.2       0 UNK         0.4864 
      3 O          33.5532   20.9861    0.6452 O.2       0 UNK        -0.5359 
      4 N          31.4813   20.1905    0.2166 N.am      1 UNK        -0.4318 
      5 CA         30.7120   21.2924    0.8004 C.3       1 UNK         0.0824 
      6 C6         29.2079   20.9326    0.9161 C.3       12 UNK        -0.0944 
      7 S7         28.9081   19.7750    2.2930 S.3       12 UNK        -0.2672 
      8 C8         27.8563   20.7662    3.4126 C.3       12 UNK         0.0333 
      9 C9         28.4358   22.1416    3.7310 C.ar      12 UNK        -0.0807 
     10 C10        29.7264   22.2646    4.2511 C.ar      12 UNK        -0.0894 
     11 C11        30.2711   23.5254    4.5012 C.ar      12 UNK        -0.0804 
     12 C12        29.5044   24.6699    4.2618 C.ar      12 UNK        -0.0824 
     13 C13        28.1973   24.5667    3.7683 C.ar      12 UNK        -0.0762 
     14 C14        27.6787   23.2950    3.4963 C.ar      12 UNK        -0.0782 
     15 C15        27.3281   25.7955    3.4834 C.3       12 UNK         0.0230 
     16 S16        27.5191   27.1817    4.6544 S.3       12 UNK        -0.2608 
     17 C17        28.8768   28.1743    3.9247 C.3       12 UNK        -0.0989 
     18 CA         28.4703   29.3661    3.0120 C.3       5 UNK         0.0716 
     19 N          28.1224   28.9327    1.6506 N.am      5 UNK        -0.4135 
     20 C          27.7376   29.7326    0.6417 C.2       4 UNK         0.5031 
     21 O          27.6093   30.9513    0.7586 O.2       4 UNK        -0.5229 
     22 CA         27.4779   29.1115   -0.7489 C.3       4 UNK         0.0329 
     23 CB         28.3074   29.8236   -1.8321 C.3       4 UNK        -0.2001 
     24 N          27.7479   27.6757   -0.8290 N.am      4 UNK        -0.4303 
     25 C          26.9334   26.7064   -0.3958 C.2       3 UNK         0.5044 
     26 O          25.8128   26.9158    0.0681 O.2       3 UNK        -0.5152 
     27 CA         27.4562   25.2563   -0.4623 C.3       3 UNK         0.0319 
     28 CB         26.7927   24.5020   -1.6256 C.3       3 UNK        -0.2001 
     29 N          28.9138   25.0821   -0.5586 N.am      3 UNK        -0.4354 
     30 C          29.8427   25.5930    0.2630 C.2       2 UNK         0.4964 
     31 O          29.6014   26.4253    1.1342 O.2       2 UNK        -0.5047 
     32 CA         31.2657   25.0319    0.1179 C.3       2 UNK         0.0288 
     33 CB         32.3091   25.8813    0.8692 C.3       2 UNK        -0.2113 
     34 N          31.2831   23.6709    0.6510 N.am      2 UNK        -0.4145 
     35 C          30.8839   22.5832   -0.0200 C.2       1 UNK         0.5006 
     36 O          30.5896   22.5878   -1.2188 O.2       1 UNK        -0.5103 
     37 C          27.4244   30.2971    3.6725 C.2       5 UNK         0.5055 
     38 O          26.2239   30.1695    3.4175 O.2       5 UNK        -0.5220 
     39 N          27.9196   31.2312    4.4952 N.am      6 UNK        -0.4450 
     40 CA         27.2152   32.3146    5.1954 C.3       6 UNK         0.0367 
     41 CB         26.0110   31.8159    6.0192 C.3       6 UNK        -0.1929 
     42 C          26.8371   33.4909    4.2784 C.2       6 UNK         0.5070 
     43 O          26.9636   34.6379    4.7085 O.2       6 UNK        -0.5237 
     44 N          26.4227   33.2131    3.0345 N.am      7 UNK        -0.4739 
     45 CA         26.2908   34.2192    1.9760 C.3       7 UNK         0.0276 
     46 CB         25.3605   33.6991    0.8679 C.3       7 UNK        -0.1927 
     47 C          27.6728   34.6000    1.4172 C.2       7 UNK         0.5013 
     48 O          27.9701   35.7871    1.2761 O.2       7 UNK        -0.5193 
     49 N          28.4950   33.5796    1.1529 N.am      8 UNK        -0.4253 
     50 CA         29.9115   33.6645    0.8123 C.3       8 UNK         0.0242 
     51 CB         30.1142   33.0633   -0.5920 C.3       8 UNK        -0.2000 
     52 C          30.7316   32.9184    1.8819 C.2       8 UNK         0.4948 
     53 O          30.2042   32.5693    2.9430 O.2       8 UNK        -0.5275 
     54 N          32.0218   32.7019    1.5948 N.am      9 UNK        -0.4246 
     55 CA         32.9628   31.9812    2.4556 C.3       9 UNK         0.0261 
     56 CB         34.3762   32.0958    1.8609 C.3       9 UNK        -0.1959 
     57 C          32.5818   30.5014    2.6469 C.2       9 UNK         0.5033 
     58 O          32.0704   29.8709    1.7181 O.2       9 UNK        -0.5390 
     59 N          32.8675   29.9814    3.8456 N.am      10 UNK        -0.4215 
     60 CA         32.6760   28.5816    4.2262 C.3       10 UNK         0.0240 
     61 CB         32.3378   28.5286    5.7295 C.3       10 UNK        -0.1982 
     62 C          33.9139   27.7290    3.8876 C.2       10 UNK         0.4970 
     63 O          34.8633   28.2200    3.2725 O.2       10 UNK        -0.4916 
     64 N          33.8735   26.4587    4.3078 N.am      11 UNK        -0.4279 
     65 CA         34.9201   25.4445    4.0908 C.3       11 UNK         0.1003 
     66 C          36.2902   25.7414    4.7699 C.2       11 UNK         0.5709 
     67 N          36.3663   26.6243    5.7590 N.am      11 UNK        -0.7358 
     68 O          37.3021   25.1573    4.3895 O.2       11 UNK        -0.4999 
     69 C69        34.4286   24.0244    4.4830 C.3       12 UNK        -0.0954 
     70 S70        32.8821   23.5426    3.6465 S.3       12 UNK        -0.2268 
     71 C71        31.6938   23.6480    5.0179 C.3       12 UNK         0.0203 
     72 H72        34.0660   18.3679    0.1664 H         1 UNK         0.0888 
     73 H73        32.6660   18.2277   -0.8985 H         1 UNK         0.0888 
     74 H74        34.0375   19.2314   -1.3738 H         1 UNK         0.0888 
     75 H75        30.9324   19.4551   -0.2046 H         1 UNK         0.3017 
     76 H76        31.1073   21.4759    1.8021 H         1 UNK         0.0873 
     77 H77        28.8441   20.4816   -0.0091 H         1 UNK         0.0745 
     78 H78        28.5956   21.8247    1.0614 H         1 UNK         0.0745 
     79 H79        27.7178   20.2163    4.3444 H         1 UNK         0.0705 
     80 H80        26.8673   20.8591    2.9613 H         1 UNK         0.0705 
     81 H81        30.3183   21.3779    4.4340 H         1 UNK         0.1334 
     82 H82        29.9346   25.6378    4.4647 H         1 UNK         0.1417 
     83 H83        26.6779   23.2022    3.0965 H         1 UNK         0.1562 
     84 H84        26.2767   25.5056    3.5119 H         1 UNK         0.0748 
     85 H85        27.5051   26.1490    2.4718 H         1 UNK         0.0748 
     86 H86        29.5646   27.5230    3.3898 H         1 UNK         0.0940 
     87 H87        29.4553   28.5606    4.7647 H         1 UNK         0.0940 
     88 H88        29.3710   29.9668    2.8701 H         1 UNK         0.0703 
     89 H89        28.2921   27.9550    1.4460 H         1 UNK         0.3081 
     90 H90        26.4221   29.2773   -0.9733 H         1 UNK         0.0719 
     91 H91        29.3781   29.7263   -1.6480 H         1 UNK         0.0809 
     92 H92        28.0977   29.4202   -2.8229 H         1 UNK         0.0809 
     93 H93        28.0762   30.8892   -1.8670 H         1 UNK         0.0809 
     94 H94        28.6603   27.4055   -1.1664 H         1 UNK         0.2990 
     95 H95        27.1479   24.7724    0.4663 H         1 UNK         0.0690 
     96 H96        27.0463   23.4417   -1.6084 H         1 UNK         0.0788 
     97 H97        27.0977   24.9057   -2.5920 H         1 UNK         0.0788 
     98 H98        25.7053   24.5726   -1.5709 H         1 UNK         0.0788 
     99 H99        29.2290   24.3851   -1.2226 H         1 UNK         0.2993 
    100 H100       31.5300   25.0226   -0.9419 H         1 UNK         0.0949 
    101 H101       32.3299   26.9032    0.4876 H         1 UNK         0.0767 
    102 H102       32.0898   25.9409    1.9357 H         1 UNK         0.0767 
    103 H103       33.3125   25.4702    0.7579 H         1 UNK         0.0767 
    104 H104       31.5012   23.5846    1.6354 H         1 UNK         0.3013 
    105 H105       28.9284   31.3088    4.5390 H         1 UNK         0.3121 
    106 H106       27.9448   32.7064    5.9062 H         1 UNK         0.0774 
    107 H107       25.6244   32.6132    6.6551 H         1 UNK         0.0815 
    108 H108       25.1870   31.4861    5.3862 H         1 UNK         0.0815 
    109 H109       26.2895   30.9871    6.6698 H         1 UNK         0.0815 
    110 H110       26.3341   32.2387    2.7677 H         1 UNK         0.2987 
    111 H111       25.8399   35.1202    2.3983 H         1 UNK         0.0949 
    112 H112       25.2436   34.4432    0.0789 H         1 UNK         0.0806 
    113 H113       25.7433   32.7904    0.4031 H         1 UNK         0.0806 
    114 H114       24.3660   33.4810    1.2574 H         1 UNK         0.0806 
    115 H115       28.1436   32.6311    1.2733 H         1 UNK         0.3010 
    116 H116       30.2392   34.7060    0.8086 H         1 UNK         0.0829 
    117 H117       29.4206   33.4971   -1.3126 H         1 UNK         0.0813 
    118 H118       31.1203   33.2507   -0.9678 H         1 UNK         0.0813 
    119 H119       29.9592   31.9839   -0.5895 H         1 UNK         0.0813 
    120 H120       32.3713   32.9940    0.6944 H         1 UNK         0.3038 
    121 H121       32.9553   32.4724    3.4312 H         1 UNK         0.0769 
    122 H122       34.4333   31.6430    0.8700 H         1 UNK         0.0811 
    123 H123       35.1084   31.5884    2.4908 H         1 UNK         0.0811 
    124 H124       34.6903   33.1363    1.7753 H         1 UNK         0.0811 
    125 H125       33.3425   30.5633    4.5207 H         1 UNK         0.3204 
    126 H126       31.8363   28.1705    3.6635 H         1 UNK         0.0748 
    127 H127       33.1920   28.8117    6.3462 H         1 UNK         0.0771 
    128 H128       31.5175   29.2034    5.9754 H         1 UNK         0.0771 
    129 H129       32.0257   27.5304    6.0382 H         1 UNK         0.0771 
    130 H130       33.0622   26.1392    4.8116 H         1 UNK         0.2980 
    131 H131       35.1177   25.4356    3.0172 H         1 UNK         0.0545 
    132 H132       37.2597   26.8082    6.1874 H         1 UNK         0.3459 
    133 H133       35.5438   27.1090    6.0777 H         1 UNK         0.3459 
    134 H134       34.2967   23.9482    5.5640 H         1 UNK         0.0616 
    135 H135       35.1807   23.2785    4.2189 H         1 UNK         0.0616 
    136 H136       31.9015   22.8554    5.7384 H         1 UNK         0.0634 
    137 H137       31.8217   24.5919    5.5492 H         1 UNK         0.0634 
@<TRIPOS>BOND
     1    1    2 1    
     2    1   72 1    
     3    1   73 1    
     4    1   74 1    
     5    2    3 2    
     6    2    4 am   BACKBONE|DICT|INTERRES
     7    4    5 1    
     8    4   75 1    
     9    5    6 1    
    10    5   35 1    
    11    5   76 1    
    12    6    7 1    
    13    6   77 1    
    14    6   78 1    
    15    7    8 1    
    16    8    9 1    
    17    8   79 1    
    18    8   80 1    
    19    9   10 ar   
    20    9   14 ar   
    21   10   11 ar   
    22   10   81 1    
    23   11   12 ar   
    24   11   71 1    
    25   12   13 ar   
    26   12   82 1    
    27   13   14 ar   
    28   13   15 1    
    29   14   83 1    
    30   15   16 1    
    31   15   84 1    
    32   15   85 1    
    33   16   17 1    
    34   17   18 1    
    35   17   86 1    
    36   17   87 1    
    37   18   19 1    
    38   18   37 1    
    39   18   88 1    
    40   19   20 am   BACKBONE|DICT|INTERRES
    41   19   89 1    
    42   20   21 2    
    43   20   22 1    
    44   22   23 1    
    45   22   24 1    
    46   22   90 1    
    47   23   91 1    
    48   23   92 1    
    49   23   93 1    
    50   24   25 am   BACKBONE|DICT|INTERRES
    51   24   94 1    
    52   25   26 2    
    53   25   27 1    
    54   27   28 1    
    55   27   29 1    
    56   27   95 1    
    57   28   96 1    
    58   28   97 1    
    59   28   98 1    
    60   29   30 am   BACKBONE|DICT|INTERRES
    61   29   99 1    
    62   30   31 2    
    63   30   32 1    
    64   32   33 1    
    65   32   34 1    
    66   32  100 1    
    67   33  101 1    
    68   33  102 1    
    69   33  103 1    
    70   34   35 am   BACKBONE|DICT|INTERRES
    71   34  104 1    
    72   35   36 2    
    73   37   38 2    
    74   37   39 am   BACKBONE|DICT|INTERRES
    75   39   40 1    
    76   39  105 1    
    77   40   41 1    
    78   40   42 1    
    79   40  106 1    
    80   41  107 1    
    81   41  108 1    
    82   41  109 1    
    83   42   43 2    
    84   42   44 am   BACKBONE|DICT|INTERRES
    85   44   45 1    
    86   44  110 1    
    87   45   46 1    
    88   45   47 1    
    89   45  111 1    
    90   46  112 1    
    91   46  113 1    
    92   46  114 1    
    93   47   48 2    
    94   47   49 am   BACKBONE|DICT|INTERRES
    95   49   50 1    
    96   49  115 1    
    97   50   51 1    
    98   50   52 1    
    99   50  116 1    
   100   51  117 1    
   101   51  118 1    
   102   51  119 1    
   103   52   53 2    
   104   52   54 am   BACKBONE|DICT|INTERRES
   105   54   55 1    
   106   54  120 1    
   107   55   56 1    
   108   55   57 1    
   109   55  121 1    
   110   56  122 1    
   111   56  123 1    
   112   56  124 1    
   113   57   58 2    
   114   57   59 am   BACKBONE|DICT|INTERRES
   115   59   60 1    
   116   59  125 1    
   117   60   61 1    
   118   60   62 1    
   119   60  126 1    
   120   61  127 1    
   121   61  128 1    
   122   61  129 1    
   123   62   63 2    
   124   62   64 am   BACKBONE|DICT|INTERRES
   125   64   65 1    
   126   64  130 1    
   127   65   66 1    
   128   65   69 1    
   129   65  131 1    
   130   66   67 am   BACKBONE|DICT|INTERRES
   131   66   68 2    
   132   67  132 1    
   133   67  133 1    
   134   69   70 1    
   135   69  134 1    
   136   69  135 1    
   137   70   71 1    
   138   71  136 1    
   139   71  137 1    
@<TRIPOS>SUBSTRUCTURE
     1 UNK         1 GROUP             0       ****    0 ROOT    
