@<TRIPOS>MOLECULE
3R136
137   139    1
SMALL
USER_CHARGES


@<TRIPOS>ATOM
      1 CA         29.5917   21.5434   -3.2808 C.3       0 UNK        -0.1979 
      2 C          29.2093   22.3284   -2.0361 C.2       0 UNK         0.4864 
      3 O          28.7393   23.4614   -2.1516 O.2       0 UNK        -0.5359 
      4 N          29.3912   21.7307   -0.8489 N.am      1 UNK        -0.4318 
      5 CA         29.1383   22.3273    0.4722 C.3       1 UNK         0.0824 
      6 C6         29.4721   21.3466    1.6208 C.3       12 UNK        -0.0944 
      7 S7         31.2744   21.0897    1.7479 S.3       12 UNK        -0.2672 
      8 C8         31.6625   21.8143    3.3766 C.3       12 UNK         0.0333 
      9 C9         31.3150   23.2958    3.4707 C.ar      12 UNK        -0.0807 
     10 C10        32.1292   24.2576    2.8646 C.ar      12 UNK        -0.0894 
     11 C11        31.8227   25.6183    2.9759 C.ar      12 UNK        -0.0804 
     12 C12        30.6944   26.0158    3.6990 C.ar      12 UNK        -0.0824 
     13 C13        29.8667   25.0636    4.3015 C.ar      12 UNK        -0.0762 
     14 C14        30.1891   23.7077    4.1901 C.ar      12 UNK        -0.0782 
     15 C15        28.6308   25.4798    5.0877 C.3       12 UNK         0.0230 
     16 S16        27.1015   25.0369    4.1978 S.3       12 UNK        -0.2608 
     17 C17        26.4539   26.6190    3.5559 C.3       12 UNK        -0.0989 
     18 CA         27.4608   27.5215    2.7980 C.3       5 UNK         0.0716 
     19 N          27.9954   26.9108    1.5708 N.am      5 UNK        -0.4135 
     20 C          28.9668   27.4541    0.8179 C.2       4 UNK         0.5031 
     21 O          29.5701   28.4793    1.1349 O.2       4 UNK        -0.5229 
     22 CA         29.2787   26.8221   -0.5501 C.3       4 UNK         0.0329 
     23 CB         30.5250   25.9307   -0.4672 C.3       4 UNK        -0.2001 
     24 N          28.1667   26.0849   -1.1604 N.am      4 UNK        -0.4303 
     25 C          26.9803   26.6178   -1.4934 C.2       3 UNK         0.5044 
     26 O          26.6537   27.7753   -1.2296 O.2       3 UNK        -0.5152 
     27 CA         25.9882   25.7075   -2.2321 C.3       3 UNK         0.0319 
     28 CB         26.3713   25.5736   -3.7150 C.3       3 UNK        -0.2001 
     29 N          25.9415   24.3834   -1.6149 N.am      3 UNK        -0.4354 
     30 C          25.0896   24.0363   -0.6394 C.2       2 UNK         0.4964 
     31 O          24.1634   24.7493   -0.2515 O.2       2 UNK        -0.5047 
     32 CA         25.3125   22.6706    0.0406 C.3       2 UNK         0.0288 
     33 CB         24.4529   21.5879   -0.6319 C.3       2 UNK        -0.2113 
     34 N          26.7115   22.2293    0.0659 N.am      2 UNK        -0.4145 
     35 C          27.7207   22.9100    0.6306 C.2       1 UNK         0.5006 
     36 O          27.5792   23.9930    1.1961 O.2       1 UNK        -0.5103 
     37 C          26.8607   28.9332    2.5958 C.2       5 UNK         0.5055 
     38 O          26.7176   29.6495    3.5870 O.2       5 UNK        -0.5220 
     39 N          26.5819   29.3575    1.3514 N.am      6 UNK        -0.4450 
     40 CA         26.2555   30.7484    1.0116 C.3       6 UNK         0.0367 
     41 CB         25.8676   30.8374   -0.4723 C.3       6 UNK        -0.1929 
     42 C          27.3900   31.7467    1.3297 C.2       6 UNK         0.5070 
     43 O          27.1036   32.9214    1.5610 O.2       6 UNK        -0.5237 
     44 N          28.6439   31.2698    1.3687 N.am      7 UNK        -0.4739 
     45 CA         29.8166   32.0322    1.8088 C.3       7 UNK         0.0276 
     46 CB         31.0549   31.5144    1.0559 C.3       7 UNK        -0.1927 
     47 C          30.0412   31.9535    3.3324 C.2       7 UNK         0.5013 
     48 O          30.9805   32.5770    3.8289 O.2       7 UNK        -0.5193 
     49 N          29.2068   31.1865    4.0519 N.am      8 UNK        -0.4253 
     50 CA         29.2919   30.8953    5.4850 C.3       8 UNK         0.0242 
     51 CB         28.9175   32.1456    6.3146 C.3       8 UNK        -0.2000 
     52 C          30.6519   30.2659    5.8452 C.2       8 UNK         0.4948 
     53 O          30.9981   29.2287    5.2797 O.2       8 UNK        -0.5275 
     54 N          31.3957   30.8975    6.7607 N.am      9 UNK        -0.4246 
     55 CA         32.7143   30.4574    7.2174 C.3       9 UNK         0.0261 
     56 CB         32.8861   30.8757    8.6883 C.3       9 UNK        -0.1959 
     57 C          33.8784   30.9965    6.3641 C.2       9 UNK         0.5033 
     58 O          35.0232   30.6365    6.6460 O.2       9 UNK        -0.5390 
     59 N          33.6085   31.8471    5.3580 N.am      10 UNK        -0.4215 
     60 CA         34.6367   32.5367    4.5623 C.3       10 UNK         0.0240 
     61 CB         33.9844   33.6011    3.6665 C.3       10 UNK        -0.1982 
     62 C          35.5398   31.6110    3.7259 C.2       10 UNK         0.4970 
     63 O          36.6332   32.0332    3.3466 O.2       10 UNK        -0.4916 
     64 N          35.0909   30.3757    3.4698 N.am      11 UNK        -0.4279 
     65 CA         35.9010   29.3072    2.8698 C.3       11 UNK         0.1003 
     66 C          37.0060   28.7217    3.8016 C.2       11 UNK         0.5709 
     67 N          37.0229   29.0203    5.0969 N.am      11 UNK        -0.7358 
     68 O          37.8773   27.9931    3.3324 O.2       11 UNK        -0.4999 
     69 C69        35.0128   28.2047    2.2380 C.3       12 UNK        -0.0954 
     70 S70        33.9548   27.3178    3.4324 S.3       12 UNK        -0.2268 
     71 C71        32.6990   26.6595    2.2988 C.3       12 UNK         0.0203 
     72 H72        28.7218   21.4151   -3.9241 H         1 UNK         0.0888 
     73 H73        30.3541   22.0829   -3.8420 H         1 UNK         0.0888 
     74 H74        29.9837   20.5562   -3.0369 H         1 UNK         0.0888 
     75 H75        29.7925   20.8038   -0.8267 H         1 UNK         0.3017 
     76 H76        29.8168   23.1741    0.5608 H         1 UNK         0.0873 
     77 H77        28.9876   20.3820    1.4597 H         1 UNK         0.0745 
     78 H78        29.0935   21.7110    2.5767 H         1 UNK         0.0745 
     79 H79        32.7277   21.6831    3.5724 H         1 UNK         0.0705 
     80 H80        31.1424   21.2469    4.1501 H         1 UNK         0.0705 
     81 H81        33.0020   23.9453    2.3076 H         1 UNK         0.1334 
     82 H82        30.4692   27.0695    3.7887 H         1 UNK         0.1417 
     83 H83        29.5532   22.9721    4.6638 H         1 UNK         0.1562 
     84 H84        28.6488   26.5414    5.3361 H         1 UNK         0.0748 
     85 H85        28.6330   24.9558    6.0446 H         1 UNK         0.0748 
     86 H86        26.0390   27.1489    4.4162 H         1 UNK         0.0940 
     87 H87        25.6028   26.3916    2.9110 H         1 UNK         0.0940 
     88 H88        28.3172   27.6932    3.4473 H         1 UNK         0.0703 
     89 H89        27.6141   26.0075    1.3034 H         1 UNK         0.3081 
     90 H90        29.5074   27.6427   -1.2333 H         1 UNK         0.0719 
     91 H91        30.6767   25.3520   -1.3785 H         1 UNK         0.0809 
     92 H92        31.4168   26.5401   -0.3224 H         1 UNK         0.0809 
     93 H93        30.4684   25.2418    0.3732 H         1 UNK         0.0809 
     94 H94        28.3576   25.1237   -1.4358 H         1 UNK         0.2990 
     95 H95        25.0024   26.1754   -2.1840 H         1 UNK         0.0690 
     96 H96        26.4038   26.5513   -4.1979 H         1 UNK         0.0788 
     97 H97        25.6443   24.9686   -4.2570 H         1 UNK         0.0788 
     98 H98        27.3515   25.1132   -3.8444 H         1 UNK         0.0788 
     99 H99        26.7076   23.7584   -1.8399 H         1 UNK         0.2993 
    100 H100       24.9872   22.7740    1.0782 H         1 UNK         0.0949 
    101 H101       24.7552   21.4173   -1.6660 H         1 UNK         0.0767 
    102 H102       24.5204   20.6389   -0.0995 H         1 UNK         0.0767 
    103 H103       23.4006   21.8763   -0.6431 H         1 UNK         0.0767 
    104 H104       26.9241   21.3596   -0.4008 H         1 UNK         0.3013 
    105 H105       26.7019   28.7198    0.5693 H         1 UNK         0.3121 
    106 H106       25.3887   31.0393    1.6088 H         1 UNK         0.0774 
    107 H107       26.6981   30.5585   -1.1223 H         1 UNK         0.0815 
    108 H108       25.5714   31.8529   -0.7388 H         1 UNK         0.0815 
    109 H109       25.0270   30.1831   -0.7039 H         1 UNK         0.0815 
    110 H110       28.8069   30.2837    1.1790 H         1 UNK         0.2987 
    111 H111       29.6803   33.0856    1.5550 H         1 UNK         0.0949 
    112 H112       31.3068   30.4934    1.3456 H         1 UNK         0.0806 
    113 H113       30.9007   31.5292   -0.0230 H         1 UNK         0.0806 
    114 H114       31.9269   32.1341    1.2647 H         1 UNK         0.0806 
    115 H115       28.4528   30.7145    3.5663 H         1 UNK         0.3010 
    116 H116       28.5426   30.1286    5.6877 H         1 UNK         0.0829 
    117 H117       27.9245   32.5047    6.0436 H         1 UNK         0.0813 
    118 H118       28.8897   31.9209    7.3817 H         1 UNK         0.0813 
    119 H119       29.6138   32.9710    6.1615 H         1 UNK         0.0813 
    120 H120       31.0405   31.7557    7.1577 H         1 UNK         0.3038 
    121 H121       32.7643   29.3672    7.1704 H         1 UNK         0.0769 
    122 H122       32.8688   31.9599    8.8054 H         1 UNK         0.0811 
    123 H123       33.8366   30.5205    9.0892 H         1 UNK         0.0811 
    124 H124       32.0985   30.4567    9.3148 H         1 UNK         0.0811 
    125 H125       32.6428   32.0675    5.1371 H         1 UNK         0.3204 
    126 H126       35.2886   33.0542    5.2694 H         1 UNK         0.0748 
    127 H127       34.7415   34.2095    3.1699 H         1 UNK         0.0771 
    128 H128       33.3726   33.1490    2.8865 H         1 UNK         0.0771 
    129 H129       33.3521   34.2774    4.2420 H         1 UNK         0.0771 
    130 H130       34.1900   30.0986    3.8304 H         1 UNK         0.2980 
    131 H131       36.4481   29.7623    2.0420 H         1 UNK         0.0545 
    132 H132       37.7499   28.6357    5.6782 H         1 UNK         0.3459 
    133 H133       36.3095   29.6117    5.5105 H         1 UNK         0.3459 
    134 H134       34.3743   28.6546    1.4759 H         1 UNK         0.0616 
    135 H135       35.6281   27.4720    1.7127 H         1 UNK         0.0616 
    136 H136       32.0863   27.4833    1.9291 H         1 UNK         0.0634 
    137 H137       33.1918   26.2218    1.4293 H         1 UNK         0.0634 
@<TRIPOS>BOND
     1    1    2 1    
     2    1   72 1    
     3    1   73 1    
     4    1   74 1    
     5    2    3 2    
     6    2    4 am   BACKBONE|DICT|INTERRES
     7    4    5 1    
     8    4   75 1    
     9    5    6 1    
    10    5   35 1    
    11    5   76 1    
    12    6    7 1    
    13    6   77 1    
    14    6   78 1    
    15    7    8 1    
    16    8    9 1    
    17    8   79 1    
    18    8   80 1    
    19    9   10 ar   
    20    9   14 ar   
    21   10   11 ar   
    22   10   81 1    
    23   11   12 ar   
    24   11   71 1    
    25   12   13 ar   
    26   12   82 1    
    27   13   14 ar   
    28   13   15 1    
    29   14   83 1    
    30   15   16 1    
    31   15   84 1    
    32   15   85 1    
    33   16   17 1    
    34   17   18 1    
    35   17   86 1    
    36   17   87 1    
    37   18   19 1    
    38   18   37 1    
    39   18   88 1    
    40   19   20 am   BACKBONE|DICT|INTERRES
    41   19   89 1    
    42   20   21 2    
    43   20   22 1    
    44   22   23 1    
    45   22   24 1    
    46   22   90 1    
    47   23   91 1    
    48   23   92 1    
    49   23   93 1    
    50   24   25 am   BACKBONE|DICT|INTERRES
    51   24   94 1    
    52   25   26 2    
    53   25   27 1    
    54   27   28 1    
    55   27   29 1    
    56   27   95 1    
    57   28   96 1    
    58   28   97 1    
    59   28   98 1    
    60   29   30 am   BACKBONE|DICT|INTERRES
    61   29   99 1    
    62   30   31 2    
    63   30   32 1    
    64   32   33 1    
    65   32   34 1    
    66   32  100 1    
    67   33  101 1    
    68   33  102 1    
    69   33  103 1    
    70   34   35 am   BACKBONE|DICT|INTERRES
    71   34  104 1    
    72   35   36 2    
    73   37   38 2    
    74   37   39 am   BACKBONE|DICT|INTERRES
    75   39   40 1    
    76   39  105 1    
    77   40   41 1    
    78   40   42 1    
    79   40  106 1    
    80   41  107 1    
    81   41  108 1    
    82   41  109 1    
    83   42   43 2    
    84   42   44 am   BACKBONE|DICT|INTERRES
    85   44   45 1    
    86   44  110 1    
    87   45   46 1    
    88   45   47 1    
    89   45  111 1    
    90   46  112 1    
    91   46  113 1    
    92   46  114 1    
    93   47   48 2    
    94   47   49 am   BACKBONE|DICT|INTERRES
    95   49   50 1    
    96   49  115 1    
    97   50   51 1    
    98   50   52 1    
    99   50  116 1    
   100   51  117 1    
   101   51  118 1    
   102   51  119 1    
   103   52   53 2    
   104   52   54 am   BACKBONE|DICT|INTERRES
   105   54   55 1    
   106   54  120 1    
   107   55   56 1    
   108   55   57 1    
   109   55  121 1    
   110   56  122 1    
   111   56  123 1    
   112   56  124 1    
   113   57   58 2    
   114   57   59 am   BACKBONE|DICT|INTERRES
   115   59   60 1    
   116   59  125 1    
   117   60   61 1    
   118   60   62 1    
   119   60  126 1    
   120   61  127 1    
   121   61  128 1    
   122   61  129 1    
   123   62   63 2    
   124   62   64 am   BACKBONE|DICT|INTERRES
   125   64   65 1    
   126   64  130 1    
   127   65   66 1    
   128   65   69 1    
   129   65  131 1    
   130   66   67 am   BACKBONE|DICT|INTERRES
   131   66   68 2    
   132   67  132 1    
   133   67  133 1    
   134   69   70 1    
   135   69  134 1    
   136   69  135 1    
   137   70   71 1    
   138   71  136 1    
   139   71  137 1    
@<TRIPOS>SUBSTRUCTURE
     1 UNK         1 GROUP             0       ****    0 ROOT    
