@<TRIPOS>MOLECULE
3R136
137   139    1
SMALL
USER_CHARGES


@<TRIPOS>ATOM
      1 CA         26.6421   17.4511   -0.3079 C.3       0 UNK        -0.1979 
      2 C          27.4481   18.6194   -0.8568 C.2       0 UNK         0.4864 
      3 O          27.5025   18.8064   -2.0736 O.2       0 UNK        -0.5359 
      4 N          28.0799   19.4009    0.0291 N.am      1 UNK        -0.4318 
      5 CA         28.8419   20.6057   -0.3129 C.3       1 UNK         0.0824 
      6 C6         29.7770   21.0188    0.8518 C.3       12 UNK        -0.0944 
      7 S7         31.2434   21.9398    0.2792 S.3       12 UNK        -0.2672 
      8 C8         30.8044   23.6588    0.6796 C.3       12 UNK         0.0333 
      9 C9         30.9276   23.9585    2.1660 C.ar      12 UNK        -0.0807 
     10 C10        32.1743   24.2912    2.7053 C.ar      12 UNK        -0.0894 
     11 C11        32.2987   24.6103    4.0598 C.ar      12 UNK        -0.0804 
     12 C12        31.1722   24.5571    4.8830 C.ar      12 UNK        -0.0824 
     13 C13        29.9165   24.2437    4.3546 C.ar      12 UNK        -0.0762 
     14 C14        29.7993   23.9449    2.9939 C.ar      12 UNK        -0.0782 
     15 C15        28.6902   24.2252    5.2571 C.3       12 UNK         0.0230 
     16 S16        27.7264   25.7695    5.1492 S.3       12 UNK        -0.2608 
     17 C17        28.8864   27.0045    5.8499 C.3       12 UNK        -0.0989 
     18 CA         29.2194   28.1753    4.8864 C.3       5 UNK         0.0716 
     19 N          29.4843   27.7090    3.5202 N.am      5 UNK        -0.4135 
     20 C          29.8498   28.4716    2.4825 C.2       4 UNK         0.5031 
     21 O          30.1279   29.6647    2.5787 O.2       4 UNK        -0.5229 
     22 CA         29.8097   27.8297    1.0845 C.3       4 UNK         0.0329 
     23 CB         31.2016   27.3443    0.6606 C.3       4 UNK        -0.2001 
     24 N          28.8233   26.7480    0.9512 N.am      4 UNK        -0.4303 
     25 C          27.5023   26.9036    1.1312 C.2       3 UNK         0.5044 
     26 O          26.9976   27.9774    1.4677 O.2       3 UNK        -0.5152 
     27 CA         26.6026   25.6623    0.9500 C.3       3 UNK         0.0319 
     28 CB         25.1298   26.0489    0.7008 C.3       3 UNK        -0.2001 
     29 N          27.0453   24.6993   -0.0701 N.am      3 UNK        -0.4354 
     30 C          27.3066   24.9310   -1.3653 C.2       2 UNK         0.4964 
     31 O          27.3292   26.0586   -1.8602 O.2       2 UNK        -0.5047 
     32 CA         27.5690   23.7004   -2.2682 C.3       2 UNK         0.0288 
     33 CB         28.2601   24.0850   -3.5910 C.3       2 UNK        -0.2113 
     34 N          28.3338   22.6077   -1.6494 N.am      2 UNK        -0.4145 
     35 C          27.8893   21.7515   -0.7191 C.2       1 UNK         0.5006 
     36 O          26.7930   21.8626   -0.1636 O.2       1 UNK        -0.5103 
     37 C          28.1396   29.2792    4.9783 C.2       5 UNK         0.5055 
     38 O          28.2009   30.0882    5.9049 O.2       5 UNK        -0.5220 
     39 N          27.1866   29.3059    4.0369 N.am      6 UNK        -0.4450 
     40 CA         26.1702   30.3494    3.9215 C.3       6 UNK         0.0367 
     41 CB         24.8085   29.7037    3.6144 C.3       6 UNK        -0.1929 
     42 C          26.5449   31.3622    2.8302 C.2       6 UNK         0.5070 
     43 O          26.3957   32.5643    3.0489 O.2       6 UNK        -0.5237 
     44 N          26.9985   30.8664    1.6696 N.am      7 UNK        -0.4739 
     45 CA         27.2480   31.6767    0.4743 C.3       7 UNK         0.0276 
     46 CB         27.3059   30.7620   -0.7597 C.3       7 UNK        -0.1927 
     47 C          28.5038   32.5625    0.5541 C.2       7 UNK         0.5013 
     48 O          28.4783   33.6732    0.0218 O.2       7 UNK        -0.5193 
     49 N          29.5728   32.0631    1.1876 N.am      8 UNK        -0.4253 
     50 CA         30.8678   32.7425    1.3064 C.3       8 UNK         0.0242 
     51 CB         31.9457   31.8972    0.6049 C.3       8 UNK        -0.2000 
     52 C          31.2697   32.9907    2.7672 C.2       8 UNK         0.4948 
     53 O          32.0056   33.9438    3.0280 O.2       8 UNK        -0.5275 
     54 N          30.8260   32.1201    3.6859 N.am      9 UNK        -0.4246 
     55 CA         31.1351   32.0532    5.1209 C.3       9 UNK         0.0261 
     56 CB         30.7496   33.3450    5.8679 C.3       9 UNK        -0.1959 
     57 C          32.5863   31.6329    5.4023 C.2       9 UNK         0.5033 
     58 O          32.8058   30.6533    6.1159 O.2       9 UNK        -0.5390 
     59 N          33.5510   32.3351    4.7979 N.am      10 UNK        -0.4215 
     60 CA         34.9765   32.0045    4.7980 C.3       10 UNK         0.0240 
     61 CB         35.7853   33.2949    4.5675 C.3       10 UNK        -0.1982 
     62 C          35.2773   30.9158    3.7494 C.2       10 UNK         0.4970 
     63 O          35.9971   31.1700    2.7815 O.2       10 UNK        -0.4916 
     64 N          34.6776   29.7355    3.9392 N.am      11 UNK        -0.4279 
     65 CA         34.8192   28.5621    3.0693 C.3       11 UNK         0.1003 
     66 C          36.2348   27.9172    3.1035 C.2       11 UNK         0.5709 
     67 N          36.5735   27.1211    2.0978 N.am      11 UNK        -0.7358 
     68 O          37.0175   28.1092    4.0331 O.2       11 UNK        -0.4999 
     69 C69        33.6823   27.5391    3.3257 C.3       12 UNK        -0.0954 
     70 S70        33.6717   26.8188    5.0048 S.3       12 UNK        -0.2268 
     71 C71        33.6411   25.0333    4.6392 C.3       12 UNK         0.0203 
     72 H72        26.6924   17.3958    0.7794 H         1 UNK         0.0888 
     73 H73        25.5954   17.5507   -0.5940 H         1 UNK         0.0888 
     74 H74        27.0187   16.5121   -0.7126 H         1 UNK         0.0888 
     75 H75        27.9700   19.2164    1.0160 H         1 UNK         0.3017 
     76 H76        29.4572   20.3518   -1.1795 H         1 UNK         0.0873 
     77 H77        29.2413   21.5664    1.6276 H         1 UNK         0.0745 
     78 H78        30.1654   20.1270    1.3469 H         1 UNK         0.0745 
     79 H79        31.4672   24.3196    0.1190 H         1 UNK         0.0705 
     80 H80        29.7974   23.8753    0.3284 H         1 UNK         0.0705 
     81 H81        33.0444   24.3193    2.0636 H         1 UNK         0.1334 
     82 H82        31.2764   24.7860    5.9346 H         1 UNK         0.1417 
     83 H83        28.8281   23.7020    2.5854 H         1 UNK         0.1562 
     84 H84        28.9787   24.0518    6.2951 H         1 UNK         0.0748 
     85 H85        28.0463   23.3893    4.9798 H         1 UNK         0.0748 
     86 H86        29.8133   26.5155    6.1410 H         1 UNK         0.0940 
     87 H87        28.4721   27.3709    6.7918 H         1 UNK         0.0940 
     88 H88        30.1467   28.6351    5.2359 H         1 UNK         0.0703 
     89 H89        29.2742   26.7358    3.3524 H         1 UNK         0.3081 
     90 H90        29.5152   28.6141    0.3868 H         1 UNK         0.0719 
     91 H91        31.9164   28.1685    0.6642 H         1 UNK         0.0809 
     92 H92        31.5845   26.5834    1.3363 H         1 UNK         0.0809 
     93 H93        31.1918   26.9320   -0.3484 H         1 UNK         0.0809 
     94 H94        29.1640   25.8476    0.6546 H         1 UNK         0.2990 
     95 H95        26.6424   25.1311    1.9021 H         1 UNK         0.0690 
     96 H96        24.4962   25.1661    0.6152 H         1 UNK         0.0788 
     97 H97        25.0178   26.6330   -0.2135 H         1 UNK         0.0788 
     98 H98        24.7340   26.6487    1.5216 H         1 UNK         0.0788 
     99 H99        26.9943   23.7201    0.1991 H         1 UNK         0.2993 
    100 H100       26.5828   23.3044   -2.5205 H         1 UNK         0.0949 
    101 H101       28.3797   23.2200   -4.2439 H         1 UNK         0.0767 
    102 H102       27.6746   24.8205   -4.1448 H         1 UNK         0.0767 
    103 H103       29.2472   24.5158   -3.4181 H         1 UNK         0.0767 
    104 H104       29.2649   22.4651   -2.0149 H         1 UNK         0.3013 
    105 H105       27.2097   28.6214    3.2873 H         1 UNK         0.3121 
    106 H106       26.0743   30.8939    4.8635 H         1 UNK         0.0774 
    107 H107       24.8215   29.1478    2.6761 H         1 UNK         0.0815 
    108 H108       24.0280   30.4614    3.5336 H         1 UNK         0.0815 
    109 H109       24.5112   29.0152    4.4056 H         1 UNK         0.0815 
    110 H110       27.0542   29.8567    1.5596 H         1 UNK         0.2987 
    111 H111       26.3939   32.3461    0.3469 H         1 UNK         0.0949 
    112 H112       28.1447   30.0690   -0.7144 H         1 UNK         0.0806 
    113 H113       26.3932   30.1745   -0.8624 H         1 UNK         0.0806 
    114 H114       27.4184   31.3476   -1.6732 H         1 UNK         0.0806 
    115 H115       29.5097   31.1405    1.6084 H         1 UNK         0.3010 
    116 H116       30.8337   33.7189    0.8187 H         1 UNK         0.0829 
    117 H117       32.0475   30.9104    1.0583 H         1 UNK         0.0813 
    118 H118       31.7132   31.7577   -0.4508 H         1 UNK         0.0813 
    119 H119       32.9212   32.3826    0.6606 H         1 UNK         0.0813 
    120 H120       30.3481   31.2953    3.3295 H         1 UNK         0.3038 
    121 H121       30.5061   31.2561    5.5156 H         1 UNK         0.0769 
    122 H122       29.7017   33.5960    5.7034 H         1 UNK         0.0811 
    123 H123       31.3519   34.1995    5.5593 H         1 UNK         0.0811 
    124 H124       30.8888   33.2246    6.9429 H         1 UNK         0.0811 
    125 H125       33.2491   33.0863    4.1809 H         1 UNK         0.3204 
    126 H126       35.2541   31.6053    5.7760 H         1 UNK         0.0748 
    127 H127       36.8570   33.0913    4.5742 H         1 UNK         0.0771 
    128 H128       35.5450   33.7574    3.6091 H         1 UNK         0.0771 
    129 H129       35.5910   34.0283    5.3504 H         1 UNK         0.0771 
    130 H130       34.1022   29.6148    4.7646 H         1 UNK         0.2980 
    131 H131       34.6834   28.9293    2.0499 H         1 UNK         0.0545 
    132 H132       37.4830   26.6868    2.1049 H         1 UNK         0.3459 
    133 H133       35.9450   26.9519    1.3285 H         1 UNK         0.3459 
    134 H134       32.7180   28.0250    3.1764 H         1 UNK         0.0616 
    135 H135       33.7280   26.7430    2.5823 H         1 UNK         0.0616 
    136 H136       33.8268   24.4809    5.5613 H         1 UNK         0.0634 
    137 H137       34.4597   24.7855    3.9614 H         1 UNK         0.0634 
@<TRIPOS>BOND
     1    1    2 1    
     2    1   72 1    
     3    1   73 1    
     4    1   74 1    
     5    2    3 2    
     6    2    4 am   BACKBONE|DICT|INTERRES
     7    4    5 1    
     8    4   75 1    
     9    5    6 1    
    10    5   35 1    
    11    5   76 1    
    12    6    7 1    
    13    6   77 1    
    14    6   78 1    
    15    7    8 1    
    16    8    9 1    
    17    8   79 1    
    18    8   80 1    
    19    9   10 ar   
    20    9   14 ar   
    21   10   11 ar   
    22   10   81 1    
    23   11   12 ar   
    24   11   71 1    
    25   12   13 ar   
    26   12   82 1    
    27   13   14 ar   
    28   13   15 1    
    29   14   83 1    
    30   15   16 1    
    31   15   84 1    
    32   15   85 1    
    33   16   17 1    
    34   17   18 1    
    35   17   86 1    
    36   17   87 1    
    37   18   19 1    
    38   18   37 1    
    39   18   88 1    
    40   19   20 am   BACKBONE|DICT|INTERRES
    41   19   89 1    
    42   20   21 2    
    43   20   22 1    
    44   22   23 1    
    45   22   24 1    
    46   22   90 1    
    47   23   91 1    
    48   23   92 1    
    49   23   93 1    
    50   24   25 am   BACKBONE|DICT|INTERRES
    51   24   94 1    
    52   25   26 2    
    53   25   27 1    
    54   27   28 1    
    55   27   29 1    
    56   27   95 1    
    57   28   96 1    
    58   28   97 1    
    59   28   98 1    
    60   29   30 am   BACKBONE|DICT|INTERRES
    61   29   99 1    
    62   30   31 2    
    63   30   32 1    
    64   32   33 1    
    65   32   34 1    
    66   32  100 1    
    67   33  101 1    
    68   33  102 1    
    69   33  103 1    
    70   34   35 am   BACKBONE|DICT|INTERRES
    71   34  104 1    
    72   35   36 2    
    73   37   38 2    
    74   37   39 am   BACKBONE|DICT|INTERRES
    75   39   40 1    
    76   39  105 1    
    77   40   41 1    
    78   40   42 1    
    79   40  106 1    
    80   41  107 1    
    81   41  108 1    
    82   41  109 1    
    83   42   43 2    
    84   42   44 am   BACKBONE|DICT|INTERRES
    85   44   45 1    
    86   44  110 1    
    87   45   46 1    
    88   45   47 1    
    89   45  111 1    
    90   46  112 1    
    91   46  113 1    
    92   46  114 1    
    93   47   48 2    
    94   47   49 am   BACKBONE|DICT|INTERRES
    95   49   50 1    
    96   49  115 1    
    97   50   51 1    
    98   50   52 1    
    99   50  116 1    
   100   51  117 1    
   101   51  118 1    
   102   51  119 1    
   103   52   53 2    
   104   52   54 am   BACKBONE|DICT|INTERRES
   105   54   55 1    
   106   54  120 1    
   107   55   56 1    
   108   55   57 1    
   109   55  121 1    
   110   56  122 1    
   111   56  123 1    
   112   56  124 1    
   113   57   58 2    
   114   57   59 am   BACKBONE|DICT|INTERRES
   115   59   60 1    
   116   59  125 1    
   117   60   61 1    
   118   60   62 1    
   119   60  126 1    
   120   61  127 1    
   121   61  128 1    
   122   61  129 1    
   123   62   63 2    
   124   62   64 am   BACKBONE|DICT|INTERRES
   125   64   65 1    
   126   64  130 1    
   127   65   66 1    
   128   65   69 1    
   129   65  131 1    
   130   66   67 am   BACKBONE|DICT|INTERRES
   131   66   68 2    
   132   67  132 1    
   133   67  133 1    
   134   69   70 1    
   135   69  134 1    
   136   69  135 1    
   137   70   71 1    
   138   71  136 1    
   139   71  137 1    
@<TRIPOS>SUBSTRUCTURE
     1 UNK         1 GROUP             0       ****    0 ROOT    
