@<TRIPOS>MOLECULE
3R136
137   139    1
SMALL
USER_CHARGES


@<TRIPOS>ATOM
      1 CA         28.4919   21.0950   -1.9053 C.3       0 UNK        -0.1979 
      2 C          28.4816   22.5495   -2.3517 C.2       0 UNK         0.4864 
      3 O          28.3363   22.8240   -3.5442 O.2       0 UNK        -0.5359 
      4 N          28.6400   23.4755   -1.4006 N.am      1 UNK        -0.4318 
      5 CA         28.5767   24.9245   -1.6055 C.3       1 UNK         0.0824 
      6 C6         29.5538   25.6507   -0.6418 C.3       12 UNK        -0.0944 
      7 S7         31.2349   25.6884   -1.3438 S.3       12 UNK        -0.2672 
      8 C8         32.0007   24.1909   -0.6343 C.3       12 UNK         0.0333 
      9 C9         32.3527   24.3189    0.8440 C.ar      12 UNK        -0.0807 
     10 C10        32.9571   25.4781    1.3397 C.ar      12 UNK        -0.0894 
     11 C11        33.3000   25.5859    2.6891 C.ar      12 UNK        -0.0804 
     12 C12        33.0418   24.5159    3.5526 C.ar      12 UNK        -0.0824 
     13 C13        32.4558   23.3398    3.0670 C.ar      12 UNK        -0.0762 
     14 C14        32.1167   23.2489    1.7123 C.ar      12 UNK        -0.0782 
     15 C15        32.1941   22.1604    3.9984 C.3       12 UNK         0.0230 
     16 S16        30.4168   21.7795    4.1700 S.3       12 UNK        -0.2608 
     17 C17        29.7973   23.3239    4.9102 C.3       12 UNK        -0.0989 
     18 CA         29.2310   24.2923    3.8381 C.3       5 UNK         0.0716 
     19 N          27.9070   23.9121    3.3548 N.am      5 UNK        -0.4135 
     20 C          27.6407   23.3092    2.1939 C.2       4 UNK         0.5031 
     21 O          28.4948   22.9333    1.3898 O.2       4 UNK        -0.5229 
     22 CA         26.1567   23.1326    1.8433 C.3       4 UNK         0.0329 
     23 CB         25.4044   22.2768    2.8831 C.3       4 UNK        -0.2001 
     24 N          25.4796   24.4080    1.5775 N.am      4 UNK        -0.4303 
     25 C          25.1848   25.4065    2.4249 C.2       3 UNK         0.5044 
     26 O          25.4651   25.3948    3.6250 O.2       3 UNK        -0.5152 
     27 CA         24.4646   26.6158    1.8031 C.3       3 UNK         0.0319 
     28 CB         24.2985   27.8148    2.7539 C.3       3 UNK        -0.2001 
     29 N          25.1790   27.0480    0.6039 N.am      3 UNK        -0.4354 
     30 C          24.6479   27.1295   -0.6208 C.2       2 UNK         0.4964 
     31 O          23.4547   26.9514   -0.8692 O.2       2 UNK        -0.5047 
     32 CA         25.6190   27.4194   -1.7796 C.3       2 UNK         0.0288 
     33 CB         25.8563   28.9333   -1.9073 C.3       2 UNK        -0.2113 
     34 N          26.9159   26.7298   -1.7023 N.am      2 UNK        -0.4145 
     35 C          27.1172   25.4190   -1.4890 C.2       1 UNK         0.5006 
     36 O          26.2079   24.6212   -1.2398 O.2       1 UNK        -0.5103 
     37 C          29.1372   25.7419    4.3261 C.2       5 UNK         0.5055 
     38 O          29.3262   26.0151    5.5123 O.2       5 UNK        -0.5220 
     39 N          28.8210   26.6347    3.3855 N.am      6 UNK        -0.4450 
     40 CA         28.7646   28.0817    3.5225 C.3       6 UNK         0.0367 
     41 CB         27.6922   28.5170    4.5399 C.3       6 UNK        -0.1929 
     42 C          28.4872   28.6511    2.1297 C.2       6 UNK         0.5070 
     43 O          27.7796   28.0117    1.3443 O.2       6 UNK        -0.5237 
     44 N          29.0489   29.8321    1.8577 N.am      7 UNK        -0.4739 
     45 CA         28.8981   30.5936    0.6162 C.3       7 UNK         0.0276 
     46 CB         29.4420   29.8244   -0.6073 C.3       7 UNK        -0.1927 
     47 C          29.6101   31.9443    0.7443 C.2       7 UNK         0.5013 
     48 O          29.0110   32.9784    0.4483 O.2       7 UNK        -0.5193 
     49 N          30.8719   31.9071    1.1878 N.am      8 UNK        -0.4253 
     50 CA         31.7712   33.0485    1.3398 C.3       8 UNK         0.0242 
     51 CB         32.2490   33.5315   -0.0476 C.3       8 UNK        -0.2000 
     52 C          32.9502   32.6223    2.2275 C.2       8 UNK         0.4948 
     53 O          32.9763   31.4816    2.6992 O.2       8 UNK        -0.5275 
     54 N          33.9077   33.5375    2.4302 N.am      9 UNK        -0.4246 
     55 CA         35.1500   33.3470    3.1880 C.3       9 UNK         0.0261 
     56 CB         36.0898   32.3646    2.4481 C.3       9 UNK        -0.1959 
     57 C          34.8803   32.9829    4.6628 C.2       9 UNK         0.5033 
     58 O          34.0507   33.6383    5.2974 O.2       9 UNK        -0.5390 
     59 N          35.5951   31.9801    5.1905 N.am      10 UNK        -0.4215 
     60 CA         35.4956   31.5254    6.5785 C.3       10 UNK         0.0240 
     61 CB         36.6942   30.6198    6.9070 C.3       10 UNK        -0.1982 
     62 C          34.1742   30.8061    6.8972 C.2       10 UNK         0.4970 
     63 O          33.6542   30.9807    8.0003 O.2       10 UNK        -0.4916 
     64 N          33.6691   30.0033    5.9510 N.am      11 UNK        -0.4279 
     65 CA         32.4083   29.2615    6.0974 C.3       11 UNK         0.1003 
     66 C          31.1448   30.1349    5.8649 C.2       11 UNK         0.5709 
     67 N          31.1648   31.0874    4.9407 N.am      11 UNK        -0.7358 
     68 O          30.1414   29.9627    6.5511 O.2       11 UNK        -0.4999 
     69 C69        32.3910   27.9492    5.2698 C.3       12 UNK        -0.0954 
     70 S70        32.7604   28.1765    3.4964 S.3       12 UNK        -0.2268 
     71 C71        33.9740   26.8566    3.1858 C.3       12 UNK         0.0203 
     72 H72        29.2958   20.5542   -2.4038 H         1 UNK         0.0888 
     73 H73        28.6373   21.0024   -0.8286 H         1 UNK         0.0888 
     74 H74        27.5468   20.6173   -2.1617 H         1 UNK         0.0888 
     75 H75        28.6887   23.1847   -0.4256 H         1 UNK         0.3017 
     76 H76        28.8716   25.1492   -2.6332 H         1 UNK         0.0873 
     77 H77        29.2736   26.6904   -0.4777 H         1 UNK         0.0745 
     78 H78        29.5668   25.1919    0.3480 H         1 UNK         0.0745 
     79 H79        31.3420   23.3387   -0.8044 H         1 UNK         0.0705 
     80 H80        32.9184   23.9816   -1.1849 H         1 UNK         0.0705 
     81 H81        33.1638   26.3040    0.6730 H         1 UNK         0.1334 
     82 H82        33.3078   24.5962    4.5977 H         1 UNK         0.1417 
     83 H83        31.6578   22.3426    1.3401 H         1 UNK         0.1562 
     84 H84        32.6179   22.3422    4.9874 H         1 UNK         0.0748 
     85 H85        32.7049   21.2798    3.6063 H         1 UNK         0.0748 
     86 H86        30.6194   23.7824    5.4636 H         1 UNK         0.0940 
     87 H87        29.0350   23.0840    5.6534 H         1 UNK         0.0940 
     88 H88        29.9229   24.3253    2.9962 H         1 UNK         0.0703 
     89 H89        27.1180   24.2853    3.8754 H         1 UNK         0.3081 
     90 H90        26.1263   22.5863    0.8989 H         1 UNK         0.0719 
     91 H91        25.3559   22.7530    3.8624 H         1 UNK         0.0809 
     92 H92        24.3826   22.0763    2.5610 H         1 UNK         0.0809 
     93 H93        25.8957   21.3123    3.0178 H         1 UNK         0.0809 
     94 H94        25.2945   24.5719    0.5923 H         1 UNK         0.2990 
     95 H95        23.4649   26.2579    1.5492 H         1 UNK         0.0690 
     96 H96        23.5942   28.5378    2.3426 H         1 UNK         0.0788 
     97 H97        25.2411   28.3357    2.9093 H         1 UNK         0.0788 
     98 H98        23.9141   27.5095    3.7280 H         1 UNK         0.0788 
     99 H99        26.1687   27.2587    0.7270 H         1 UNK         0.2993 
    100 H100       25.1349   27.0725   -2.6947 H         1 UNK         0.0949 
    101 H101       24.9120   29.4675   -2.0226 H         1 UNK         0.0767 
    102 H102       26.3512   29.3373   -1.0234 H         1 UNK         0.0767 
    103 H103       26.4692   29.1714   -2.7768 H         1 UNK         0.0767 
    104 H104       27.7229   27.3035   -1.8959 H         1 UNK         0.3013 
    105 H105       28.6298   26.3193    2.4430 H         1 UNK         0.3121 
    106 H106       29.7417   28.4356    3.8512 H         1 UNK         0.0774 
    107 H107       26.7804   27.9303    4.4425 H         1 UNK         0.0815 
    108 H108       27.4318   29.5700    4.4261 H         1 UNK         0.0815 
    109 H109       28.0498   28.3876    5.5613 H         1 UNK         0.0815 
    110 H110       29.5822   30.2901    2.5848 H         1 UNK         0.2987 
    111 H111       27.8349   30.7913    0.4647 H         1 UNK         0.0949 
    112 H112       30.4551   29.4571   -0.4394 H         1 UNK         0.0806 
    113 H113       28.8146   28.9715   -0.8554 H         1 UNK         0.0806 
    114 H114       29.4666   30.4617   -1.4925 H         1 UNK         0.0806 
    115 H115       31.2947   31.0243    1.4505 H         1 UNK         0.3010 
    116 H116       31.2385   33.8538    1.8499 H         1 UNK         0.0829 
    117 H117       32.8897   34.4102    0.0302 H         1 UNK         0.0813 
    118 H118       32.8159   32.7575   -0.5665 H         1 UNK         0.0813 
    119 H119       31.4111   33.8123   -0.6857 H         1 UNK         0.0813 
    120 H120       33.7734   34.4618    2.0449 H         1 UNK         0.3038 
    121 H121       35.6451   34.3191    3.2085 H         1 UNK         0.0769 
    122 H122       35.6910   31.3494    2.4261 H         1 UNK         0.0811 
    123 H123       37.0768   32.3295    2.9109 H         1 UNK         0.0811 
    124 H124       36.2414   32.6764    1.4145 H         1 UNK         0.0811 
    125 H125       36.2553   31.4996    4.5966 H         1 UNK         0.3204 
    126 H126       35.5520   32.4054    7.2231 H         1 UNK         0.0748 
    127 H127       36.6573   30.2857    7.9451 H         1 UNK         0.0771 
    128 H128       36.7141   29.7282    6.2789 H         1 UNK         0.0771 
    129 H129       37.6390   31.1471    6.7729 H         1 UNK         0.0771 
    130 H130       34.1205   29.9413    5.0505 H         1 UNK         0.2980 
    131 H131       32.3458   28.9421    7.1400 H         1 UNK         0.0545 
    132 H132       30.3619   31.6850    4.8381 H         1 UNK         0.3459 
    133 H133       31.9706   31.2056    4.3344 H         1 UNK         0.3459 
    134 H134       33.1121   27.2547    5.7014 H         1 UNK         0.0616 
    135 H135       31.4273   27.4524    5.3624 H         1 UNK         0.0616 
    136 H136       34.5736   26.6612    4.0757 H         1 UNK         0.0634 
    137 H137       34.6754   27.2098    2.4285 H         1 UNK         0.0634 
@<TRIPOS>BOND
     1    1    2 1    
     2    1   72 1    
     3    1   73 1    
     4    1   74 1    
     5    2    3 2    
     6    2    4 am   BACKBONE|DICT|INTERRES
     7    4    5 1    
     8    4   75 1    
     9    5    6 1    
    10    5   35 1    
    11    5   76 1    
    12    6    7 1    
    13    6   77 1    
    14    6   78 1    
    15    7    8 1    
    16    8    9 1    
    17    8   79 1    
    18    8   80 1    
    19    9   10 ar   
    20    9   14 ar   
    21   10   11 ar   
    22   10   81 1    
    23   11   12 ar   
    24   11   71 1    
    25   12   13 ar   
    26   12   82 1    
    27   13   14 ar   
    28   13   15 1    
    29   14   83 1    
    30   15   16 1    
    31   15   84 1    
    32   15   85 1    
    33   16   17 1    
    34   17   18 1    
    35   17   86 1    
    36   17   87 1    
    37   18   19 1    
    38   18   37 1    
    39   18   88 1    
    40   19   20 am   BACKBONE|DICT|INTERRES
    41   19   89 1    
    42   20   21 2    
    43   20   22 1    
    44   22   23 1    
    45   22   24 1    
    46   22   90 1    
    47   23   91 1    
    48   23   92 1    
    49   23   93 1    
    50   24   25 am   BACKBONE|DICT|INTERRES
    51   24   94 1    
    52   25   26 2    
    53   25   27 1    
    54   27   28 1    
    55   27   29 1    
    56   27   95 1    
    57   28   96 1    
    58   28   97 1    
    59   28   98 1    
    60   29   30 am   BACKBONE|DICT|INTERRES
    61   29   99 1    
    62   30   31 2    
    63   30   32 1    
    64   32   33 1    
    65   32   34 1    
    66   32  100 1    
    67   33  101 1    
    68   33  102 1    
    69   33  103 1    
    70   34   35 am   BACKBONE|DICT|INTERRES
    71   34  104 1    
    72   35   36 2    
    73   37   38 2    
    74   37   39 am   BACKBONE|DICT|INTERRES
    75   39   40 1    
    76   39  105 1    
    77   40   41 1    
    78   40   42 1    
    79   40  106 1    
    80   41  107 1    
    81   41  108 1    
    82   41  109 1    
    83   42   43 2    
    84   42   44 am   BACKBONE|DICT|INTERRES
    85   44   45 1    
    86   44  110 1    
    87   45   46 1    
    88   45   47 1    
    89   45  111 1    
    90   46  112 1    
    91   46  113 1    
    92   46  114 1    
    93   47   48 2    
    94   47   49 am   BACKBONE|DICT|INTERRES
    95   49   50 1    
    96   49  115 1    
    97   50   51 1    
    98   50   52 1    
    99   50  116 1    
   100   51  117 1    
   101   51  118 1    
   102   51  119 1    
   103   52   53 2    
   104   52   54 am   BACKBONE|DICT|INTERRES
   105   54   55 1    
   106   54  120 1    
   107   55   56 1    
   108   55   57 1    
   109   55  121 1    
   110   56  122 1    
   111   56  123 1    
   112   56  124 1    
   113   57   58 2    
   114   57   59 am   BACKBONE|DICT|INTERRES
   115   59   60 1    
   116   59  125 1    
   117   60   61 1    
   118   60   62 1    
   119   60  126 1    
   120   61  127 1    
   121   61  128 1    
   122   61  129 1    
   123   62   63 2    
   124   62   64 am   BACKBONE|DICT|INTERRES
   125   64   65 1    
   126   64  130 1    
   127   65   66 1    
   128   65   69 1    
   129   65  131 1    
   130   66   67 am   BACKBONE|DICT|INTERRES
   131   66   68 2    
   132   67  132 1    
   133   67  133 1    
   134   69   70 1    
   135   69  134 1    
   136   69  135 1    
   137   70   71 1    
   138   71  136 1    
   139   71  137 1    
@<TRIPOS>SUBSTRUCTURE
     1 UNK         1 GROUP             0       ****    0 ROOT    
