@<TRIPOS>MOLECULE
3R136
137   139    1
SMALL
USER_CHARGES


@<TRIPOS>ATOM
      1 CA         31.0719   25.9354    2.5279 C.3       0 UNK        -0.1979 
      2 C          30.1279   25.4789    1.4270 C.2       0 UNK         0.4864 
      3 O          29.5856   26.3084    0.6957 O.2       0 UNK        -0.5359 
      4 N          29.9650   24.1576    1.2666 N.am      1 UNK        -0.4318 
      5 CA         29.1124   23.5098    0.2564 C.3       1 UNK         0.0824 
      6 C6         28.9248   21.9941    0.5285 C.3       12 UNK        -0.0944 
      7 S7         30.4874   21.0584    0.6982 S.3       12 UNK        -0.2672 
      8 C8         30.3730   20.4254    2.4039 C.3       12 UNK         0.0333 
      9 C9         30.6327   21.5198    3.4280 C.ar      12 UNK        -0.0807 
     10 C10        31.9423   21.8251    3.8104 C.ar      12 UNK        -0.0894 
     11 C11        32.1910   22.8429    4.7355 C.ar      12 UNK        -0.0804 
     12 C12        31.1203   23.5672    5.2674 C.ar      12 UNK        -0.0824 
     13 C13        29.8059   23.2675    4.8983 C.ar      12 UNK        -0.0762 
     14 C14        29.5680   22.2268    3.9952 C.ar      12 UNK        -0.0782 
     15 C15        28.6495   24.0652    5.4854 C.3       12 UNK         0.0230 
     16 S16        27.6010   24.7978    4.1861 S.3       12 UNK        -0.2608 
     17 C17        27.0528   26.3539    4.9651 C.3       12 UNK        -0.0989 
     18 CA         27.5120   27.5826    4.1430 C.3       5 UNK         0.0716 
     19 N          26.8964   27.5942    2.8135 N.am      5 UNK        -0.4135 
     20 C          27.1023   28.4934    1.8448 C.2       4 UNK         0.5031 
     21 O          27.7952   29.5091    1.9568 O.2       4 UNK        -0.5229 
     22 CA         26.4139   28.2126    0.5085 C.3       4 UNK         0.0329 
     23 CB         25.2627   29.2010    0.2519 C.3       4 UNK        -0.2001 
     24 N          27.4242   28.3222   -0.5362 N.am      4 UNK        -0.4303 
     25 C          27.3965   27.6849   -1.7106 C.2       3 UNK         0.5044 
     26 O          26.4693   26.9618   -2.0776 O.2       3 UNK        -0.5152 
     27 CA         28.6141   27.8574   -2.6267 C.3       3 UNK         0.0319 
     28 CB         29.2755   29.2473   -2.5450 C.3       3 UNK        -0.2001 
     29 N          29.5808   26.8124   -2.3021 N.am      3 UNK        -0.4354 
     30 C          30.2874   26.1199   -3.2078 C.2       2 UNK         0.4964 
     31 O          30.2763   26.3651   -4.4150 O.2       2 UNK        -0.5047 
     32 CA         31.1508   24.9453   -2.7020 C.3       2 UNK         0.0288 
     33 CB         32.6190   25.3806   -2.5641 C.3       2 UNK        -0.2113 
     34 N          30.6984   24.3915   -1.4247 N.am      2 UNK        -0.4145 
     35 C          29.5202   23.7865   -1.2112 C.2       1 UNK         0.5006 
     36 O          28.7434   23.4819   -2.1182 O.2       1 UNK        -0.5103 
     37 C          27.2418   28.8872    4.9123 C.2       5 UNK         0.5055 
     38 O          26.0885   29.1667    5.2459 O.2       5 UNK        -0.5220 
     39 N          28.3064   29.6672    5.1417 N.am      6 UNK        -0.4450 
     40 CA         28.3840   30.9743    5.8085 C.3       6 UNK         0.0367 
     41 CB         27.8497   30.9118    7.2525 C.3       6 UNK        -0.1929 
     42 C          27.7370   32.1285    5.0219 C.2       6 UNK         0.5070 
     43 O          28.2238   33.2561    5.1068 O.2       6 UNK        -0.5237 
     44 N          26.6722   31.8393    4.2652 N.am      7 UNK        -0.4739 
     45 CA         25.9601   32.7796    3.4018 C.3       7 UNK         0.0276 
     46 CB         24.6408   32.1401    2.9420 C.3       7 UNK        -0.1927 
     47 C          26.7876   33.2465    2.1924 C.2       7 UNK         0.5013 
     48 O          26.6132   34.3885    1.7639 O.2       7 UNK        -0.5193 
     49 N          27.6607   32.3751    1.6672 N.am      8 UNK        -0.4253 
     50 CA         28.5231   32.6701    0.5219 C.3       8 UNK         0.0242 
     51 CB         27.8671   32.1529   -0.7685 C.3       8 UNK        -0.2000 
     52 C          29.9514   32.1254    0.6744 C.2       8 UNK         0.4948 
     53 O          30.8669   32.7460    0.1312 O.2       8 UNK        -0.5275 
     54 N          30.1460   31.0047    1.3840 N.am      9 UNK        -0.4246 
     55 CA         31.4572   30.3848    1.5798 C.3       9 UNK         0.0261 
     56 CB         31.7383   29.3943    0.4340 C.3       9 UNK        -0.1959 
     57 C          31.5374   29.6765    2.9350 C.2       9 UNK         0.5033 
     58 O          30.5127   29.3247    3.5210 O.2       9 UNK        -0.5390 
     59 N          32.7710   29.4392    3.3828 N.am      10 UNK        -0.4215 
     60 CA         33.1300   28.6314    4.5411 C.3       10 UNK         0.0240 
     61 CB         33.0768   29.4809    5.8232 C.3       10 UNK        -0.1982 
     62 C          34.5371   28.0828    4.2795 C.2       10 UNK         0.4970 
     63 O          35.3035   28.7128    3.5444 O.2       10 UNK        -0.4916 
     64 N          34.8477   26.9226    4.8654 N.am      11 UNK        -0.4279 
     65 CA         36.1114   26.1985    4.6347 C.3       11 UNK         0.1003 
     66 C          37.3299   26.7429    5.4365 C.2       11 UNK         0.5709 
     67 N          37.1567   27.6848    6.3563 N.am      11 UNK        -0.7358 
     68 O          38.4571   26.3080    5.2121 O.2       11 UNK        -0.4999 
     69 C69        35.9500   24.6662    4.8232 C.3       12 UNK        -0.0954 
     70 S70        34.5559   23.9819    3.8609 S.3       12 UNK        -0.2268 
     71 C71        33.6126   23.1529    5.1752 C.3       12 UNK         0.0203 
     72 H72        31.7012   25.1200    2.8822 H         1 UNK         0.0888 
     73 H73        31.7256   26.7239    2.1585 H         1 UNK         0.0888 
     74 H74        30.5072   26.3252    3.3730 H         1 UNK         0.0888 
     75 H75        30.4389   23.5194    1.8925 H         1 UNK         0.3017 
     76 H76        28.1278   23.9711    0.3609 H         1 UNK         0.0873 
     77 H77        28.3343   21.5285   -0.2632 H         1 UNK         0.0745 
     78 H78        28.3246   21.8655    1.4284 H         1 UNK         0.0745 
     79 H79        31.1049   19.6261    2.5299 H         1 UNK         0.0705 
     80 H80        29.3958   19.9672    2.5645 H         1 UNK         0.0705 
     81 H81        32.7704   21.2740    3.3852 H         1 UNK         0.1334 
     82 H82        31.3115   24.3619    5.9756 H         1 UNK         0.1417 
     83 H83        28.5503   21.9870    3.7196 H         1 UNK         0.1562 
     84 H84        29.0364   24.8505    6.1358 H         1 UNK         0.0748 
     85 H85        28.0403   23.4145    6.1139 H         1 UNK         0.0748 
     86 H86        27.4298   26.4105    5.9877 H         1 UNK         0.0940 
     87 H87        25.9646   26.3335    5.0528 H         1 UNK         0.0940 
     88 H88        28.5889   27.5012    3.9895 H         1 UNK         0.0703 
     89 H89        26.3040   26.8024    2.6140 H         1 UNK         0.3081 
     90 H90        26.0183   27.1945    0.5179 H         1 UNK         0.0719 
     91 H91        25.6105   30.2343    0.2418 H         1 UNK         0.0809 
     92 H92        24.7759   29.0040   -0.7033 H         1 UNK         0.0809 
     93 H93        24.4996   29.1184    1.0266 H         1 UNK         0.0809 
     94 H94        28.2522   28.8358   -0.2670 H         1 UNK         0.2990 
     95 H95        28.2516   27.7199   -3.6479 H         1 UNK         0.0690 
     96 H96        30.1052   29.3268   -3.2476 H         1 UNK         0.0788 
     97 H97        29.6644   29.4678   -1.5525 H         1 UNK         0.0788 
     98 H98        28.5616   30.0293   -2.8048 H         1 UNK         0.0788 
     99 H99        29.6236   26.5395   -1.3231 H         1 UNK         0.2993 
    100 H100       31.0918   24.1517   -3.4500 H         1 UNK         0.0949 
    101 H101       32.7386   26.1652   -1.8155 H         1 UNK         0.0767 
    102 H102       33.2571   24.5433   -2.2803 H         1 UNK         0.0767 
    103 H103       33.0006   25.7707   -3.5089 H         1 UNK         0.0767 
    104 H104       31.2692   24.5925   -0.6173 H         1 UNK         0.3013 
    105 H105       29.1726   29.4003    4.6673 H         1 UNK         0.3121 
    106 H106       29.4498   31.2029    5.8633 H         1 UNK         0.0774 
    107 H107       28.0246   31.8556    7.7705 H         1 UNK         0.0815 
    108 H108       26.7765   30.7220    7.2841 H         1 UNK         0.0815 
    109 H109       28.3473   30.1300    7.8262 H         1 UNK         0.0815 
    110 H110       26.3187   30.8890    4.3117 H         1 UNK         0.2987 
    111 H111       25.7230   33.6655    3.9952 H         1 UNK         0.0949 
    112 H112       24.0860   32.8129    2.2864 H         1 UNK         0.0806 
    113 H113       24.8129   31.2149    2.3928 H         1 UNK         0.0806 
    114 H114       23.9958   31.9100    3.7902 H         1 UNK         0.0806 
    115 H115       27.7117   31.4364    2.0527 H         1 UNK         0.3010 
    116 H116       28.6344   33.7526    0.4261 H         1 UNK         0.0829 
    117 H117       26.9117   32.6449   -0.9509 H         1 UNK         0.0813 
    118 H118       28.5010   32.3440   -1.6355 H         1 UNK         0.0813 
    119 H119       27.6859   31.0809   -0.7211 H         1 UNK         0.0813 
    120 H120       29.3659   30.5051    1.8077 H         1 UNK         0.3038 
    121 H121       32.2279   31.1589    1.5783 H         1 UNK         0.0769 
    122 H122       32.6937   28.8862    0.5696 H         1 UNK         0.0811 
    123 H123       31.7847   29.9056   -0.5273 H         1 UNK         0.0811 
    124 H124       30.9672   28.6258    0.3727 H         1 UNK         0.0811 
    125 H125       33.5729   29.7204    2.8298 H         1 UNK         0.3204 
    126 H126       32.4353   27.7928    4.6256 H         1 UNK         0.0748 
    127 H127       33.3466   28.8887    6.6983 H         1 UNK         0.0771 
    128 H128       33.7631   30.3273    5.7738 H         1 UNK         0.0771 
    129 H129       32.0743   29.8735    5.9956 H         1 UNK         0.0771 
    130 H130       34.1784   26.4691    5.4685 H         1 UNK         0.2980 
    131 H131       36.3778   26.3475    3.5862 H         1 UNK         0.0545 
    132 H132       37.9553   28.0314    6.8640 H         1 UNK         0.3459 
    133 H133       36.2388   28.0535    6.5442 H         1 UNK         0.3459 
    134 H134       35.8265   24.4274    5.8808 H         1 UNK         0.0616 
    135 H135       36.8549   24.1472    4.5020 H         1 UNK         0.0616 
    136 H136       33.5980   23.7815    6.0668 H         1 UNK         0.0634 
    137 H137       34.1220   22.2298    5.4555 H         1 UNK         0.0634 
@<TRIPOS>BOND
     1    1    2 1    
     2    1   72 1    
     3    1   73 1    
     4    1   74 1    
     5    2    3 2    
     6    2    4 am   BACKBONE|DICT|INTERRES
     7    4    5 1    
     8    4   75 1    
     9    5    6 1    
    10    5   35 1    
    11    5   76 1    
    12    6    7 1    
    13    6   77 1    
    14    6   78 1    
    15    7    8 1    
    16    8    9 1    
    17    8   79 1    
    18    8   80 1    
    19    9   10 ar   
    20    9   14 ar   
    21   10   11 ar   
    22   10   81 1    
    23   11   12 ar   
    24   11   71 1    
    25   12   13 ar   
    26   12   82 1    
    27   13   14 ar   
    28   13   15 1    
    29   14   83 1    
    30   15   16 1    
    31   15   84 1    
    32   15   85 1    
    33   16   17 1    
    34   17   18 1    
    35   17   86 1    
    36   17   87 1    
    37   18   19 1    
    38   18   37 1    
    39   18   88 1    
    40   19   20 am   BACKBONE|DICT|INTERRES
    41   19   89 1    
    42   20   21 2    
    43   20   22 1    
    44   22   23 1    
    45   22   24 1    
    46   22   90 1    
    47   23   91 1    
    48   23   92 1    
    49   23   93 1    
    50   24   25 am   BACKBONE|DICT|INTERRES
    51   24   94 1    
    52   25   26 2    
    53   25   27 1    
    54   27   28 1    
    55   27   29 1    
    56   27   95 1    
    57   28   96 1    
    58   28   97 1    
    59   28   98 1    
    60   29   30 am   BACKBONE|DICT|INTERRES
    61   29   99 1    
    62   30   31 2    
    63   30   32 1    
    64   32   33 1    
    65   32   34 1    
    66   32  100 1    
    67   33  101 1    
    68   33  102 1    
    69   33  103 1    
    70   34   35 am   BACKBONE|DICT|INTERRES
    71   34  104 1    
    72   35   36 2    
    73   37   38 2    
    74   37   39 am   BACKBONE|DICT|INTERRES
    75   39   40 1    
    76   39  105 1    
    77   40   41 1    
    78   40   42 1    
    79   40  106 1    
    80   41  107 1    
    81   41  108 1    
    82   41  109 1    
    83   42   43 2    
    84   42   44 am   BACKBONE|DICT|INTERRES
    85   44   45 1    
    86   44  110 1    
    87   45   46 1    
    88   45   47 1    
    89   45  111 1    
    90   46  112 1    
    91   46  113 1    
    92   46  114 1    
    93   47   48 2    
    94   47   49 am   BACKBONE|DICT|INTERRES
    95   49   50 1    
    96   49  115 1    
    97   50   51 1    
    98   50   52 1    
    99   50  116 1    
   100   51  117 1    
   101   51  118 1    
   102   51  119 1    
   103   52   53 2    
   104   52   54 am   BACKBONE|DICT|INTERRES
   105   54   55 1    
   106   54  120 1    
   107   55   56 1    
   108   55   57 1    
   109   55  121 1    
   110   56  122 1    
   111   56  123 1    
   112   56  124 1    
   113   57   58 2    
   114   57   59 am   BACKBONE|DICT|INTERRES
   115   59   60 1    
   116   59  125 1    
   117   60   61 1    
   118   60   62 1    
   119   60  126 1    
   120   61  127 1    
   121   61  128 1    
   122   61  129 1    
   123   62   63 2    
   124   62   64 am   BACKBONE|DICT|INTERRES
   125   64   65 1    
   126   64  130 1    
   127   65   66 1    
   128   65   69 1    
   129   65  131 1    
   130   66   67 am   BACKBONE|DICT|INTERRES
   131   66   68 2    
   132   67  132 1    
   133   67  133 1    
   134   69   70 1    
   135   69  134 1    
   136   69  135 1    
   137   70   71 1    
   138   71  136 1    
   139   71  137 1    
@<TRIPOS>SUBSTRUCTURE
     1 UNK         1 GROUP             0       ****    0 ROOT    
