@<TRIPOS>MOLECULE
3R136
137   139    1
SMALL
USER_CHARGES


@<TRIPOS>ATOM
      1 CA         27.6281   20.5901    3.5232 C.3       0 UNK        -0.1979 
      2 C          27.8582   20.1794    2.0768 C.2       0 UNK         0.4864 
      3 O          27.9867   18.9871    1.7948 O.2       0 UNK        -0.5359 
      4 N          27.9018   21.1534    1.1618 N.am      1 UNK        -0.4318 
      5 CA         28.0275   20.9409   -0.2782 C.3       1 UNK         0.0824 
      6 C6         29.4748   20.5835   -0.7423 C.3       12 UNK        -0.0944 
      7 S7         30.7561   21.8493   -0.4258 S.3       12 UNK        -0.2672 
      8 C8         31.5522   21.2650    1.1010 C.3       12 UNK         0.0333 
      9 C9         31.8636   22.4509    1.9993 C.ar      12 UNK        -0.0807 
     10 C10        32.8746   23.3517    1.6513 C.ar      12 UNK        -0.0894 
     11 C11        33.1152   24.4890    2.4285 C.ar      12 UNK        -0.0804 
     12 C12        32.3395   24.7111    3.5717 C.ar      12 UNK        -0.0824 
     13 C13        31.3219   23.8201    3.9281 C.ar      12 UNK        -0.0762 
     14 C14        31.1057   22.6790    3.1497 C.ar      12 UNK        -0.0782 
     15 C15        30.4446   24.1121    5.1404 C.3       12 UNK         0.0230 
     16 S16        28.6509   24.0192    4.7929 S.3       12 UNK        -0.2608 
     17 C17        28.4540   24.9264    3.2167 C.3       12 UNK        -0.0989 
     18 CA         28.8545   26.4204    3.2747 C.3       5 UNK         0.0716 
     19 N          29.0332   26.9631    1.9269 N.am      5 UNK        -0.4135 
     20 C          29.6852   28.1031    1.6534 C.2       4 UNK         0.5031 
     21 O          30.3128   28.7414    2.4957 O.2       4 UNK        -0.5229 
     22 CA         29.6133   28.6426    0.2089 C.3       4 UNK         0.0329 
     23 CB         30.9075   28.3135   -0.5524 C.3       4 UNK        -0.2001 
     24 N          28.4703   28.1468   -0.5655 N.am      4 UNK        -0.4303 
     25 C          27.1787   28.3105   -0.2450 C.2       3 UNK         0.5044 
     26 O          26.7965   28.9888    0.7065 O.2       3 UNK        -0.5152 
     27 CA         26.1320   27.5414   -1.0727 C.3       3 UNK         0.0319 
     28 CB         25.4363   28.4902   -2.0611 C.3       3 UNK        -0.2001 
     29 N          26.6434   26.3727   -1.8016 N.am      3 UNK        -0.4354 
     30 C          27.2804   25.3194   -1.2682 C.2       2 UNK         0.4964 
     31 O          27.5733   25.2254   -0.0716 O.2       2 UNK        -0.5047 
     32 CA         27.7171   24.2369   -2.2722 C.3       2 UNK         0.0288 
     33 CB         28.8855   24.7462   -3.1353 C.3       2 UNK        -0.2113 
     34 N          28.1394   22.9996   -1.6188 N.am      2 UNK        -0.4145 
     35 C          27.3465   22.1285   -0.9865 C.2       1 UNK         0.5006 
     36 O          26.1188   22.2342   -0.9373 O.2       1 UNK        -0.5103 
     37 C          27.8498   27.2585    4.0970 C.2       5 UNK         0.5055 
     38 O          28.0765   27.4786    5.2877 O.2       5 UNK        -0.5220 
     39 N          26.7659   27.7179    3.4516 N.am      6 UNK        -0.4450 
     40 CA         25.7455   28.5780    4.0555 C.3       6 UNK         0.0367 
     41 CB         24.4387   28.4879    3.2500 C.3       6 UNK        -0.1929 
     42 C          26.2389   30.0279    4.1546 C.2       6 UNK         0.5070 
     43 O          26.1683   30.6284    5.2275 O.2       6 UNK        -0.5237 
     44 N          26.7960   30.5470    3.0530 N.am      7 UNK        -0.4739 
     45 CA         27.5020   31.8276    2.9783 C.3       7 UNK         0.0276 
     46 CB         27.4540   32.3359    1.5254 C.3       7 UNK        -0.1927 
     47 C          28.9413   31.6674    3.5023 C.2       7 UNK         0.5013 
     48 O          29.8972   31.8932    2.7582 O.2       7 UNK        -0.5193 
     49 N          29.0521   31.2511    4.7733 N.am      8 UNK        -0.4253 
     50 CA         30.2488   30.7346    5.4498 C.3       8 UNK         0.0242 
     51 CB         29.9198   30.4835    6.9295 C.3       8 UNK        -0.2000 
     52 C          31.5267   31.5782    5.3224 C.2       8 UNK         0.4948 
     53 O          32.6178   31.0103    5.3523 O.2       8 UNK        -0.5275 
     54 N          31.3864   32.8972    5.1312 N.am      9 UNK        -0.4246 
     55 CA         32.4778   33.8298    4.8302 C.3       9 UNK         0.0261 
     56 CB         31.9098   35.2553    4.7402 C.3       9 UNK        -0.1959 
     57 C          33.2738   33.4859    3.5532 C.2       9 UNK         0.5033 
     58 O          34.4334   33.8883    3.4502 O.2       9 UNK        -0.5390 
     59 N          32.6625   32.7421    2.6183 N.am      10 UNK        -0.4215 
     60 CA         33.3180   32.2110    1.4218 C.3       10 UNK         0.0240 
     61 CB         32.2439   31.7422    0.4276 C.3       10 UNK        -0.1982 
     62 C          34.3083   31.0674    1.7176 C.2       10 UNK         0.4970 
     63 O          35.2430   30.8843    0.9362 O.2       10 UNK        -0.4916 
     64 N          34.0932   30.3255    2.8122 N.am      11 UNK        -0.4279 
     65 CA         34.9306   29.1951    3.2457 C.3       11 UNK         0.1003 
     66 C          35.7794   29.5209    4.5042 C.2       11 UNK         0.5709 
     67 N          35.3386   30.3947    5.3994 N.am      11 UNK        -0.7358 
     68 O          36.8713   28.9799    4.6624 O.2       11 UNK        -0.4999 
     69 C69        34.0760   27.9178    3.4591 C.3       12 UNK        -0.0954 
     70 S70        33.5849   27.1806    1.8622 S.3       12 UNK        -0.2268 
     71 C71        34.2059   25.4719    2.0155 C.3       12 UNK         0.0203 
     72 H72        27.3400   21.6374    3.6045 H         1 UNK         0.0888 
     73 H73        26.8304   19.9906    3.9610 H         1 UNK         0.0888 
     74 H74        28.5320   20.4338    4.1108 H         1 UNK         0.0888 
     75 H75        27.7603   22.1155    1.4377 H         1 UNK         0.3017 
     76 H76        27.4030   20.0815   -0.5332 H         1 UNK         0.0873 
     77 H77        29.4711   20.3791   -1.8144 H         1 UNK         0.0745 
     78 H78        29.7861   19.6452   -0.2810 H         1 UNK         0.0745 
     79 H79        30.9062   20.5537    1.6172 H         1 UNK         0.0705 
     80 H80        32.4699   20.7304    0.8522 H         1 UNK         0.0705 
     81 H81        33.4543   23.1769    0.7550 H         1 UNK         0.1334 
     82 H82        32.5137   25.5942    4.1701 H         1 UNK         0.1417 
     83 H83        30.3159   21.9924    3.4187 H         1 UNK         0.1562 
     84 H84        30.6648   25.1000    5.5479 H         1 UNK         0.0748 
     85 H85        30.6854   23.3983    5.9291 H         1 UNK         0.0748 
     86 H86        27.4194   24.8185    2.8849 H         1 UNK         0.0940 
     87 H87        29.0469   24.4143    2.4576 H         1 UNK         0.0940 
     88 H88        29.8224   26.4965    3.7732 H         1 UNK         0.0703 
     89 H89        28.5696   26.4657    1.1725 H         1 UNK         0.3081 
     90 H90        29.5177   29.7281    0.2771 H         1 UNK         0.0719 
     91 H91        31.0467   27.2374   -0.6653 H         1 UNK         0.0809 
     92 H92        30.9121   28.7628   -1.5455 H         1 UNK         0.0809 
     93 H93        31.7799   28.6973   -0.0227 H         1 UNK         0.0809 
     94 H94        28.6844   27.5698   -1.3651 H         1 UNK         0.2990 
     95 H95        25.3823   27.1756   -0.3682 H         1 UNK         0.0690 
     96 H96        24.6107   27.9959   -2.5737 H         1 UNK         0.0788 
     97 H97        26.1281   28.8636   -2.8173 H         1 UNK         0.0788 
     98 H98        25.0200   29.3566   -1.5445 H         1 UNK         0.0788 
     99 H99        26.4706   26.3676   -2.7970 H         1 UNK         0.2993 
    100 H100       26.8670   24.0071   -2.9184 H         1 UNK         0.0949 
    101 H101       28.6090   25.6384   -3.6984 H         1 UNK         0.0767 
    102 H102       29.7550   24.9995   -2.5267 H         1 UNK         0.0767 
    103 H103       29.1958   23.9953   -3.8624 H         1 UNK         0.0767 
    104 H104       29.1376   22.8480   -1.5387 H         1 UNK         0.3013 
    105 H105       26.6936   27.5689    2.4546 H         1 UNK         0.3121 
    106 H106       25.5421   28.2215    5.0678 H         1 UNK         0.0774 
    107 H107       23.6620   29.1062    3.7019 H         1 UNK         0.0815 
    108 H108       24.5655   28.8272    2.2215 H         1 UNK         0.0815 
    109 H109       24.0616   27.4656    3.2210 H         1 UNK         0.0815 
    110 H110       26.8239   29.9722    2.2114 H         1 UNK         0.2987 
    111 H111       26.9961   32.5602    3.6110 H         1 UNK         0.0949 
    112 H112       27.9474   31.6453    0.8403 H         1 UNK         0.0806 
    113 H113       26.4268   32.4661    1.1849 H         1 UNK         0.0806 
    114 H114       27.9527   33.3015    1.4319 H         1 UNK         0.0806 
    115 H115       28.1760   31.0991    5.2621 H         1 UNK         0.3010 
    116 H116       30.4684   29.7701    4.9878 H         1 UNK         0.0829 
    117 H117       29.1058   29.7656    7.0366 H         1 UNK         0.0813 
    118 H118       30.7812   30.0730    7.4585 H         1 UNK         0.0813 
    119 H119       29.6291   31.4026    7.4397 H         1 UNK         0.0813 
    120 H120       30.4488   33.2703    5.1024 H         1 UNK         0.3038 
    121 H121       33.1791   33.7905    5.6663 H         1 UNK         0.0769 
    122 H122       31.1786   35.3476    3.9359 H         1 UNK         0.0811 
    123 H123       32.7020   35.9797    4.5450 H         1 UNK         0.0811 
    124 H124       31.4264   35.5510    5.6716 H         1 UNK         0.0811 
    125 H125       31.6925   32.4629    2.7639 H         1 UNK         0.3204 
    126 H126       33.8822   33.0213    0.9553 H         1 UNK         0.0748 
    127 H127       32.6944   31.3499   -0.4852 H         1 UNK         0.0771 
    128 H128       31.6272   30.9517    0.8561 H         1 UNK         0.0771 
    129 H129       31.5833   32.5605    0.1405 H         1 UNK         0.0771 
    130 H130       33.3344   30.5711    3.4360 H         1 UNK         0.2980 
    131 H131       35.6621   28.9673    2.4680 H         1 UNK         0.0545 
    132 H132       35.9063   30.6031    6.2044 H         1 UNK         0.3459 
    133 H133       34.3902   30.7593    5.3399 H         1 UNK         0.3459 
    134 H134       33.1753   28.1468    4.0321 H         1 UNK         0.0616 
    135 H135       34.6218   27.1753    4.0433 H         1 UNK         0.0616 
    136 H136       34.6193   25.1880    1.0466 H         1 UNK         0.0634 
    137 H137       35.0359   25.4172    2.7203 H         1 UNK         0.0634 
@<TRIPOS>BOND
     1    1    2 1    
     2    1   72 1    
     3    1   73 1    
     4    1   74 1    
     5    2    3 2    
     6    2    4 am   BACKBONE|DICT|INTERRES
     7    4    5 1    
     8    4   75 1    
     9    5    6 1    
    10    5   35 1    
    11    5   76 1    
    12    6    7 1    
    13    6   77 1    
    14    6   78 1    
    15    7    8 1    
    16    8    9 1    
    17    8   79 1    
    18    8   80 1    
    19    9   10 ar   
    20    9   14 ar   
    21   10   11 ar   
    22   10   81 1    
    23   11   12 ar   
    24   11   71 1    
    25   12   13 ar   
    26   12   82 1    
    27   13   14 ar   
    28   13   15 1    
    29   14   83 1    
    30   15   16 1    
    31   15   84 1    
    32   15   85 1    
    33   16   17 1    
    34   17   18 1    
    35   17   86 1    
    36   17   87 1    
    37   18   19 1    
    38   18   37 1    
    39   18   88 1    
    40   19   20 am   BACKBONE|DICT|INTERRES
    41   19   89 1    
    42   20   21 2    
    43   20   22 1    
    44   22   23 1    
    45   22   24 1    
    46   22   90 1    
    47   23   91 1    
    48   23   92 1    
    49   23   93 1    
    50   24   25 am   BACKBONE|DICT|INTERRES
    51   24   94 1    
    52   25   26 2    
    53   25   27 1    
    54   27   28 1    
    55   27   29 1    
    56   27   95 1    
    57   28   96 1    
    58   28   97 1    
    59   28   98 1    
    60   29   30 am   BACKBONE|DICT|INTERRES
    61   29   99 1    
    62   30   31 2    
    63   30   32 1    
    64   32   33 1    
    65   32   34 1    
    66   32  100 1    
    67   33  101 1    
    68   33  102 1    
    69   33  103 1    
    70   34   35 am   BACKBONE|DICT|INTERRES
    71   34  104 1    
    72   35   36 2    
    73   37   38 2    
    74   37   39 am   BACKBONE|DICT|INTERRES
    75   39   40 1    
    76   39  105 1    
    77   40   41 1    
    78   40   42 1    
    79   40  106 1    
    80   41  107 1    
    81   41  108 1    
    82   41  109 1    
    83   42   43 2    
    84   42   44 am   BACKBONE|DICT|INTERRES
    85   44   45 1    
    86   44  110 1    
    87   45   46 1    
    88   45   47 1    
    89   45  111 1    
    90   46  112 1    
    91   46  113 1    
    92   46  114 1    
    93   47   48 2    
    94   47   49 am   BACKBONE|DICT|INTERRES
    95   49   50 1    
    96   49  115 1    
    97   50   51 1    
    98   50   52 1    
    99   50  116 1    
   100   51  117 1    
   101   51  118 1    
   102   51  119 1    
   103   52   53 2    
   104   52   54 am   BACKBONE|DICT|INTERRES
   105   54   55 1    
   106   54  120 1    
   107   55   56 1    
   108   55   57 1    
   109   55  121 1    
   110   56  122 1    
   111   56  123 1    
   112   56  124 1    
   113   57   58 2    
   114   57   59 am   BACKBONE|DICT|INTERRES
   115   59   60 1    
   116   59  125 1    
   117   60   61 1    
   118   60   62 1    
   119   60  126 1    
   120   61  127 1    
   121   61  128 1    
   122   61  129 1    
   123   62   63 2    
   124   62   64 am   BACKBONE|DICT|INTERRES
   125   64   65 1    
   126   64  130 1    
   127   65   66 1    
   128   65   69 1    
   129   65  131 1    
   130   66   67 am   BACKBONE|DICT|INTERRES
   131   66   68 2    
   132   67  132 1    
   133   67  133 1    
   134   69   70 1    
   135   69  134 1    
   136   69  135 1    
   137   70   71 1    
   138   71  136 1    
   139   71  137 1    
@<TRIPOS>SUBSTRUCTURE
     1 UNK         1 GROUP             0       ****    0 ROOT    
