@<TRIPOS>MOLECULE
3R136
137   139    1
SMALL
USER_CHARGES


@<TRIPOS>ATOM
      1 CA         24.8945   21.8656   -0.7086 C.3       0 UNK        -0.1979 
      2 C          26.1106   22.2899   -1.5179 C.2       0 UNK         0.4864 
      3 O          25.9979   23.1695   -2.3727 O.2       0 UNK        -0.5359 
      4 N          27.2731   21.6821   -1.2413 N.am      1 UNK        -0.4318 
      5 CA         28.5610   21.8890   -1.9243 C.3       1 UNK         0.0824 
      6 C6         29.6508   20.9318   -1.3731 C.3       12 UNK        -0.0944 
      7 S7         29.8853   21.0611    0.4371 S.3       12 UNK        -0.2672 
      8 C8         31.4686   21.9670    0.5338 C.3       12 UNK         0.0333 
      9 C9         31.6637   22.7984    1.8032 C.ar      12 UNK        -0.0807 
     10 C10        32.5764   23.8580    1.7663 C.ar      12 UNK        -0.0894 
     11 C11        32.7858   24.6623    2.8887 C.ar      12 UNK        -0.0804 
     12 C12        32.0854   24.3976    4.0672 C.ar      12 UNK        -0.0824 
     13 C13        31.1751   23.3399    4.1267 C.ar      12 UNK        -0.0762 
     14 C14        30.9733   22.5402    2.9968 C.ar      12 UNK        -0.0782 
     15 C15        30.4214   23.0503    5.4168 C.3       12 UNK         0.0230 
     16 S16        28.7158   23.6880    5.3754 S.3       12 UNK        -0.2608 
     17 C17        28.9713   25.4971    5.4217 C.3       12 UNK        -0.0989 
     18 CA         28.5579   26.1840    4.0908 C.3       5 UNK         0.0716 
     19 N          27.1503   25.9429    3.7332 N.am      5 UNK        -0.4135 
     20 C          26.0601   26.4098    4.3617 C.2       4 UNK         0.5031 
     21 O          26.1008   27.1119    5.3739 O.2       4 UNK        -0.5229 
     22 CA         24.6910   26.0451    3.7432 C.3       4 UNK         0.0329 
     23 CB         23.5212   26.8016    4.4015 C.3       4 UNK        -0.2001 
     24 N          24.6552   26.2905    2.2977 N.am      4 UNK        -0.4303 
     25 C          25.1520   25.4653    1.3690 C.2       3 UNK         0.5044 
     26 O          25.6464   24.3686    1.6406 O.2       3 UNK        -0.5152 
     27 CA         25.1783   25.9503   -0.0956 C.3       3 UNK         0.0319 
     28 CB         24.7391   27.4192   -0.2974 C.3       3 UNK        -0.2001 
     29 N          26.5062   25.7090   -0.6731 N.am      3 UNK        -0.4354 
     30 C          27.6692   26.1945   -0.2058 C.2       2 UNK         0.4964 
     31 O          27.7414   27.0708    0.6563 O.2       2 UNK        -0.5047 
     32 CA         28.9549   25.5353   -0.7265 C.3       2 UNK         0.0288 
     33 CB         30.1574   25.7554    0.2119 C.3       2 UNK        -0.2113 
     34 N          28.7250   24.1004   -0.8766 N.am      2 UNK        -0.4145 
     35 C          29.0502   23.3559   -1.9382 C.2       1 UNK         0.5006 
     36 O          29.6846   23.7771   -2.9070 O.2       1 UNK        -0.5103 
     37 C          28.8945   27.6942    4.0611 C.2       5 UNK         0.5055 
     38 O          29.4709   28.2227    5.0137 O.2       5 UNK        -0.5220 
     39 N          28.4745   28.3647    2.9808 N.am      6 UNK        -0.4450 
     40 CA         28.5998   29.8001    2.7637 C.3       6 UNK         0.0367 
     41 CB         27.3012   30.3255    2.1196 C.3       6 UNK        -0.1929 
     42 C          29.8537   30.0806    1.9244 C.2       6 UNK         0.5070 
     43 O          30.9211   30.2828    2.5037 O.2       6 UNK        -0.5237 
     44 N          29.6953   30.1068    0.5914 N.am      7 UNK        -0.4739 
     45 CA         30.7084   30.3879   -0.4351 C.3       7 UNK         0.0276 
     46 CB         31.5593   29.1308   -0.7136 C.3       7 UNK        -0.1927 
     47 C          31.5375   31.6507   -0.1294 C.2       7 UNK         0.5013 
     48 O          30.9948   32.7557   -0.1970 O.2       7 UNK        -0.5193 
     49 N          32.8202   31.4742    0.2145 N.am      8 UNK        -0.4253 
     50 CA         33.7763   32.5297    0.5536 C.3       8 UNK         0.0242 
     51 CB         35.2044   31.9756    0.3865 C.3       8 UNK        -0.2000 
     52 C          33.5302   33.1260    1.9554 C.2       8 UNK         0.4948 
     53 O          34.4083   33.0497    2.8163 O.2       8 UNK        -0.5275 
     54 N          32.3419   33.7197    2.1409 N.am      9 UNK        -0.4246 
     55 CA         31.8714   34.4509    3.3241 C.3       9 UNK         0.0261 
     56 CB         32.6291   35.7895    3.4589 C.3       9 UNK        -0.1959 
     57 C          31.9097   33.6071    4.6135 C.2       9 UNK         0.5033 
     58 O          32.5174   34.0242    5.6017 O.2       9 UNK        -0.5390 
     59 N          31.2543   32.4380    4.5613 N.am      10 UNK        -0.4215 
     60 CA         31.2148   31.3848    5.5827 C.3       10 UNK         0.0240 
     61 CB         30.6813   31.8944    6.9401 C.3       10 UNK        -0.1982 
     62 C          32.5783   30.6841    5.6716 C.2       10 UNK         0.4970 
     63 O          33.2963   30.8370    6.6623 O.2       10 UNK        -0.4916 
     64 N          32.9135   29.9651    4.5938 N.am      11 UNK        -0.4279 
     65 CA         34.1571   29.2054    4.4142 C.3       11 UNK         0.1003 
     66 C          34.4451   28.1558    5.5282 C.2       11 UNK         0.5709 
     67 N          35.7129   27.8483    5.7696 N.am      11 UNK        -0.7358 
     68 O          33.5426   27.5893    6.1424 O.2       11 UNK        -0.4999 
     69 C69        34.2306   28.5844    2.9923 C.3       12 UNK        -0.0954 
     70 S70        32.8914   27.3979    2.6240 S.3       12 UNK        -0.2268 
     71 C71        33.7667   25.8199    2.8366 C.3       12 UNK         0.0203 
     72 H72        25.1617   21.1898    0.1038 H         1 UNK         0.0888 
     73 H73        24.4075   22.7371   -0.2729 H         1 UNK         0.0888 
     74 H74        24.1749   21.3594   -1.3514 H         1 UNK         0.0888 
     75 H75        27.2971   20.9897   -0.5055 H         1 UNK         0.3017 
     76 H76        28.3932   21.6229   -2.9700 H         1 UNK         0.0873 
     77 H77        30.6009   21.0801   -1.8903 H         1 UNK         0.0745 
     78 H78        29.3659   19.9014   -1.5913 H         1 UNK         0.0745 
     79 H79        31.5417   22.6311   -0.3288 H         1 UNK         0.0705 
     80 H80        32.2882   21.2527    0.4466 H         1 UNK         0.0705 
     81 H81        33.1184   24.0675    0.8540 H         1 UNK         0.1334 
     82 H82        32.2500   25.0228    4.9348 H         1 UNK         0.1417 
     83 H83        30.2707   21.7213    3.0576 H         1 UNK         0.1562 
     84 H84        30.9465   23.4696    6.2766 H         1 UNK         0.0748 
     85 H85        30.3878   21.9722    5.5811 H         1 UNK         0.0748 
     86 H86        30.0164   25.7080    5.6530 H         1 UNK         0.0940 
     87 H87        28.3973   25.9038    6.2561 H         1 UNK         0.0940 
     88 H88        29.1549   25.7360    3.2956 H         1 UNK         0.0703 
     89 H89        26.9944   25.3612    2.9185 H         1 UNK         0.3081 
     90 H90        24.5362   24.9795    3.9261 H         1 UNK         0.0719 
     91 H91        23.6207   27.8813    4.2825 H         1 UNK         0.0809 
     92 H92        22.5641   26.5028    3.9737 H         1 UNK         0.0809 
     93 H93        23.4727   26.5939    5.4713 H         1 UNK         0.0809 
     94 H94        24.3129   27.1932    2.0018 H         1 UNK         0.2990 
     95 H95        24.4818   25.3147   -0.6439 H         1 UNK         0.0690 
     96 H96        24.8074   27.7036   -1.3474 H         1 UNK         0.0788 
     97 H97        25.3517   28.1199    0.2706 H         1 UNK         0.0788 
     98 H98        23.7005   27.5659    0.0018 H         1 UNK         0.0788 
     99 H99        26.5409   24.9722   -1.3701 H         1 UNK         0.2993 
    100 H100       29.1711   25.9953   -1.6929 H         1 UNK         0.0949 
    101 H101       31.0817   25.4095   -0.2500 H         1 UNK         0.0767 
    102 H102       30.2957   26.8067    0.4627 H         1 UNK         0.0767 
    103 H103       30.0329   25.2178    1.1515 H         1 UNK         0.0767 
    104 H104       28.2015   23.6565   -0.1338 H         1 UNK         0.3013 
    105 H105       28.0910   27.8335    2.1979 H         1 UNK         0.3121 
    106 H106       28.7200   30.3130    3.7194 H         1 UNK         0.0774 
    107 H107       27.3847   31.3850    1.8733 H         1 UNK         0.0815 
    108 H108       27.0421   29.7895    1.2061 H         1 UNK         0.0815 
    109 H109       26.4604   30.2214    2.8057 H         1 UNK         0.0815 
    110 H110       28.7638   29.9381    0.2389 H         1 UNK         0.2987 
    111 H111       30.1626   30.6155   -1.3522 H         1 UNK         0.0949 
    112 H112       32.0305   28.7450    0.1895 H         1 UNK         0.0806 
    113 H113       30.9444   28.3363   -1.1344 H         1 UNK         0.0806 
    114 H114       32.3445   29.3319   -1.4438 H         1 UNK         0.0806 
    115 H115       33.1514   30.5250    0.3027 H         1 UNK         0.3010 
    116 H116       33.6550   33.3446   -0.1636 H         1 UNK         0.0829 
    117 H117       35.3747   31.6138   -0.6277 H         1 UNK         0.0813 
    118 H118       35.9479   32.7500    0.5800 H         1 UNK         0.0813 
    119 H119       35.4046   31.1541    1.0750 H         1 UNK         0.0813 
    120 H120       31.6866   33.6580    1.3649 H         1 UNK         0.3038 
    121 H121       30.8214   34.6869    3.1439 H         1 UNK         0.0769 
    122 H122       32.2289   36.3842    4.2811 H         1 UNK         0.0811 
    123 H123       32.5398   36.3893    2.5533 H         1 UNK         0.0811 
    124 H124       33.6907   35.6354    3.6557 H         1 UNK         0.0811 
    125 H125       30.8834   32.1567    3.6620 H         1 UNK         0.3204 
    126 H126       30.5047   30.6388    5.2282 H         1 UNK         0.0748 
    127 H127       30.5468   31.0632    7.6332 H         1 UNK         0.0771 
    128 H128       31.3612   32.6004    7.4169 H         1 UNK         0.0771 
    129 H129       29.7137   32.3829    6.8270 H         1 UNK         0.0771 
    130 H130       32.2462   29.9038    3.8286 H         1 UNK         0.2980 
    131 H131       34.9544   29.9483    4.4789 H         1 UNK         0.0545 
    132 H132       36.4649   28.2945    5.2681 H         1 UNK         0.3459 
    133 H133       35.9221   27.1618    6.4773 H         1 UNK         0.3459 
    134 H134       34.1684   29.3809    2.2502 H         1 UNK         0.0616 
    135 H135       35.1994   28.1097    2.8277 H         1 UNK         0.0616 
    136 H136       34.4781   25.6904    2.0197 H         1 UNK         0.0634 
    137 H137       34.3509   25.8375    3.7571 H         1 UNK         0.0634 
@<TRIPOS>BOND
     1    1    2 1    
     2    1   72 1    
     3    1   73 1    
     4    1   74 1    
     5    2    3 2    
     6    2    4 am   BACKBONE|DICT|INTERRES
     7    4    5 1    
     8    4   75 1    
     9    5    6 1    
    10    5   35 1    
    11    5   76 1    
    12    6    7 1    
    13    6   77 1    
    14    6   78 1    
    15    7    8 1    
    16    8    9 1    
    17    8   79 1    
    18    8   80 1    
    19    9   10 ar   
    20    9   14 ar   
    21   10   11 ar   
    22   10   81 1    
    23   11   12 ar   
    24   11   71 1    
    25   12   13 ar   
    26   12   82 1    
    27   13   14 ar   
    28   13   15 1    
    29   14   83 1    
    30   15   16 1    
    31   15   84 1    
    32   15   85 1    
    33   16   17 1    
    34   17   18 1    
    35   17   86 1    
    36   17   87 1    
    37   18   19 1    
    38   18   37 1    
    39   18   88 1    
    40   19   20 am   BACKBONE|DICT|INTERRES
    41   19   89 1    
    42   20   21 2    
    43   20   22 1    
    44   22   23 1    
    45   22   24 1    
    46   22   90 1    
    47   23   91 1    
    48   23   92 1    
    49   23   93 1    
    50   24   25 am   BACKBONE|DICT|INTERRES
    51   24   94 1    
    52   25   26 2    
    53   25   27 1    
    54   27   28 1    
    55   27   29 1    
    56   27   95 1    
    57   28   96 1    
    58   28   97 1    
    59   28   98 1    
    60   29   30 am   BACKBONE|DICT|INTERRES
    61   29   99 1    
    62   30   31 2    
    63   30   32 1    
    64   32   33 1    
    65   32   34 1    
    66   32  100 1    
    67   33  101 1    
    68   33  102 1    
    69   33  103 1    
    70   34   35 am   BACKBONE|DICT|INTERRES
    71   34  104 1    
    72   35   36 2    
    73   37   38 2    
    74   37   39 am   BACKBONE|DICT|INTERRES
    75   39   40 1    
    76   39  105 1    
    77   40   41 1    
    78   40   42 1    
    79   40  106 1    
    80   41  107 1    
    81   41  108 1    
    82   41  109 1    
    83   42   43 2    
    84   42   44 am   BACKBONE|DICT|INTERRES
    85   44   45 1    
    86   44  110 1    
    87   45   46 1    
    88   45   47 1    
    89   45  111 1    
    90   46  112 1    
    91   46  113 1    
    92   46  114 1    
    93   47   48 2    
    94   47   49 am   BACKBONE|DICT|INTERRES
    95   49   50 1    
    96   49  115 1    
    97   50   51 1    
    98   50   52 1    
    99   50  116 1    
   100   51  117 1    
   101   51  118 1    
   102   51  119 1    
   103   52   53 2    
   104   52   54 am   BACKBONE|DICT|INTERRES
   105   54   55 1    
   106   54  120 1    
   107   55   56 1    
   108   55   57 1    
   109   55  121 1    
   110   56  122 1    
   111   56  123 1    
   112   56  124 1    
   113   57   58 2    
   114   57   59 am   BACKBONE|DICT|INTERRES
   115   59   60 1    
   116   59  125 1    
   117   60   61 1    
   118   60   62 1    
   119   60  126 1    
   120   61  127 1    
   121   61  128 1    
   122   61  129 1    
   123   62   63 2    
   124   62   64 am   BACKBONE|DICT|INTERRES
   125   64   65 1    
   126   64  130 1    
   127   65   66 1    
   128   65   69 1    
   129   65  131 1    
   130   66   67 am   BACKBONE|DICT|INTERRES
   131   66   68 2    
   132   67  132 1    
   133   67  133 1    
   134   69   70 1    
   135   69  134 1    
   136   69  135 1    
   137   70   71 1    
   138   71  136 1    
   139   71  137 1    
@<TRIPOS>SUBSTRUCTURE
     1 UNK         1 GROUP             0       ****    0 ROOT    
