@<TRIPOS>MOLECULE
3R136
137   139    1
SMALL
USER_CHARGES


@<TRIPOS>ATOM
      1 CA         33.7608   24.4200   -1.5058 C.3       0 UNK        -0.1979 
      2 C          32.6121   25.3875   -1.2614 C.2       0 UNK         0.4864 
      3 O          32.7422   26.5776   -1.5513 O.2       0 UNK        -0.5359 
      4 N          31.4943   24.8843   -0.7252 N.am      1 UNK        -0.4318 
      5 CA         30.2732   25.6486   -0.4720 C.3       1 UNK         0.0824 
      6 C6         29.4500   25.0537    0.7013 C.3       12 UNK        -0.0944 
      7 S7         28.8422   23.3392    0.4782 S.3       12 UNK        -0.2672 
      8 C8         30.2128   22.2931    1.0845 C.3       12 UNK         0.0333 
      9 C9         30.6480   22.6683    2.4916 C.ar      12 UNK        -0.0807 
     10 C10        31.8151   23.4104    2.6932 C.ar      12 UNK        -0.0894 
     11 C11        32.1761   23.8296    3.9757 C.ar      12 UNK        -0.0804 
     12 C12        31.3688   23.4872    5.0648 C.ar      12 UNK        -0.0824 
     13 C13        30.2089   22.7282    4.8768 C.ar      12 UNK        -0.0762 
     14 C14        29.8648   22.3046    3.5891 C.ar      12 UNK        -0.0782 
     15 C15        29.3153   22.3873    6.0620 C.3       12 UNK         0.0230 
     16 S16        27.6014   22.9679    5.8325 S.3       12 UNK        -0.2608 
     17 C17        27.8316   24.7647    5.5842 C.3       12 UNK        -0.0989 
     18 CA         27.6990   25.2032    4.0941 C.3       5 UNK         0.0716 
     19 N          26.4720   24.7300    3.4378 N.am      5 UNK        -0.4135 
     20 C          25.2115   25.0091    3.7985 C.2       4 UNK         0.5031 
     21 O          24.9154   25.7089    4.7690 O.2       4 UNK        -0.5229 
     22 CA         24.0938   24.4233    2.9046 C.3       4 UNK         0.0329 
     23 CB         22.7499   25.1580    3.0979 C.3       4 UNK        -0.2001 
     24 N          24.4124   24.3552    1.4672 N.am      4 UNK        -0.4303 
     25 C          24.8689   25.3547    0.6992 C.2       3 UNK         0.5044 
     26 O          25.2246   26.4519    1.1356 O.2       3 UNK        -0.5152 
     27 CA         24.9307   25.0989   -0.8104 C.3       3 UNK         0.0319 
     28 CB         23.5523   25.3600   -1.4503 C.3       3 UNK        -0.2001 
     29 N          25.9420   26.0006   -1.3500 N.am      3 UNK        -0.4354 
     30 C          26.4137   26.0611   -2.5996 C.2       2 UNK         0.4964 
     31 O          26.0092   25.3701   -3.5349 O.2       2 UNK        -0.5047 
     32 CA         27.5776   27.0412   -2.8175 C.3       2 UNK         0.0288 
     33 CB         27.0909   28.5001   -2.7917 C.3       2 UNK        -0.2113 
     34 N          28.6067   26.8488   -1.7944 N.am      2 UNK        -0.4145 
     35 C          29.4376   25.7995   -1.7569 C.2       1 UNK         0.5006 
     36 O          29.5319   24.9648   -2.6622 O.2       1 UNK        -0.5103 
     37 C          27.9581   26.7199    3.9117 C.2       5 UNK         0.5055 
     38 O          28.8231   27.2593    4.6024 O.2       5 UNK        -0.5220 
     39 N          27.2429   27.3951    2.9979 N.am      6 UNK        -0.4450 
     40 CA         27.4535   28.8080    2.6821 C.3       6 UNK         0.0367 
     41 CB         26.1470   29.4225    2.1542 C.3       6 UNK        -0.1929 
     42 C          28.5725   28.9560    1.6433 C.2       6 UNK         0.5070 
     43 O          28.5408   28.2812    0.6113 O.2       6 UNK        -0.5237 
     44 N          29.5134   29.8618    1.9128 N.am      7 UNK        -0.4739 
     45 CA         30.6165   30.2384    1.0347 C.3       7 UNK         0.0276 
     46 CB         31.8104   29.2910    1.2586 C.3       7 UNK        -0.1927 
     47 C          30.9935   31.6951    1.3376 C.2       7 UNK         0.5013 
     48 O          30.5616   32.2428    2.3569 O.2       7 UNK        -0.5193 
     49 N          31.7901   32.3033    0.4505 N.am      8 UNK        -0.4253 
     50 CA         32.3243   33.6549    0.6194 C.3       8 UNK         0.0242 
     51 CB         32.8265   34.1787   -0.7375 C.3       8 UNK        -0.2000 
     52 C          33.4483   33.6463    1.6669 C.2       8 UNK         0.4948 
     53 O          34.5230   33.1101    1.3881 O.2       8 UNK        -0.5275 
     54 N          33.1666   34.1950    2.8575 N.am      9 UNK        -0.4246 
     55 CA         34.0232   34.3157    4.0515 C.3       9 UNK         0.0261 
     56 CB         35.2724   35.1712    3.7618 C.3       9 UNK        -0.1959 
     57 C          34.4131   32.9823    4.7229 C.2       9 UNK         0.5033 
     58 O          34.4250   32.9106    5.9532 O.2       9 UNK        -0.5390 
     59 N          34.7254   31.9607    3.9201 N.am      10 UNK        -0.4215 
     60 CA         35.0192   30.5900    4.3348 C.3       10 UNK         0.0240 
     61 CB         35.6014   29.8360    3.1258 C.3       10 UNK        -0.1982 
     62 C          33.7787   29.8563    4.8767 C.2       10 UNK         0.4970 
     63 O          32.6486   30.2986    4.6618 O.2       10 UNK        -0.4916 
     64 N          34.0293   28.7198    5.5381 N.am      11 UNK        -0.4279 
     65 CA         33.0293   27.7496    6.0243 C.3       11 UNK         0.1003 
     66 C          32.1344   28.2389    7.2039 C.2       11 UNK         0.5709 
     67 N          32.3837   29.4021    7.7937 N.am      11 UNK        -0.7358 
     68 O          31.2297   27.5267    7.6325 O.2       11 UNK        -0.4999 
     69 C69        32.1982   27.1003    4.8771 C.3       12 UNK        -0.0954 
     70 S70        33.2367   26.3621    3.5690 S.3       12 UNK        -0.2268 
     71 C71        33.4374   24.6567    4.1740 C.3       12 UNK         0.0203 
     72 H72        34.0138   24.3983   -2.5655 H         1 UNK         0.0888 
     73 H73        34.6429   24.7383   -0.9507 H         1 UNK         0.0888 
     74 H74        33.5135   23.4050   -1.1952 H         1 UNK         0.0888 
     75 H75        31.4131   23.8904   -0.5778 H         1 UNK         0.3017 
     76 H76        30.5697   26.6550   -0.1743 H         1 UNK         0.0873 
     77 H77        30.0258   25.1326    1.6222 H         1 UNK         0.0745 
     78 H78        28.5699   25.6722    0.8807 H         1 UNK         0.0745 
     79 H79        29.8866   21.2521    1.0738 H         1 UNK         0.0705 
     80 H80        31.0532   22.3474    0.3927 H         1 UNK         0.0705 
     81 H81        32.4294   23.6945    1.8499 H         1 UNK         0.1334 
     82 H82        31.6396   23.8207    6.0573 H         1 UNK         0.1417 
     83 H83        28.9598   21.7321    3.4360 H         1 UNK         0.1562 
     84 H84        29.7102   22.8135    6.9856 H         1 UNK         0.0748 
     85 H85        29.3069   21.3054    6.2006 H         1 UNK         0.0748 
     86 H86        28.8075   25.0501    5.9821 H         1 UNK         0.0940 
     87 H87        27.1005   25.2879    6.2024 H         1 UNK         0.0940 
     88 H88        28.5113   24.7251    3.5483 H         1 UNK         0.0703 
     89 H89        26.6110   24.1499    2.6230 H         1 UNK         0.3081 
     90 H90        23.9574   23.3933    3.2374 H         1 UNK         0.0719 
     91 H91        22.8259   26.2105    2.8214 H         1 UNK         0.0809 
     92 H92        21.9608   24.7093    2.4945 H         1 UNK         0.0809 
     93 H93        22.4218   25.1158    4.1373 H         1 UNK         0.0809 
     94 H94        24.1804   23.4810    1.0151 H         1 UNK         0.2990 
     95 H95        25.2440   24.0687   -0.9904 H         1 UNK         0.0690 
     96 H96        23.5526   25.1387   -2.5173 H         1 UNK         0.0788 
     97 H97        23.2428   26.3984   -1.3241 H         1 UNK         0.0788 
     98 H98        22.7834   24.7333   -0.9966 H         1 UNK         0.0788 
     99 H99        26.3250   26.6247   -0.6492 H         1 UNK         0.2993 
    100 H100       28.0127   26.8397   -3.7991 H         1 UNK         0.0949 
    101 H101       26.3126   28.6649   -3.5379 H         1 UNK         0.0767 
    102 H102       26.6779   28.7753   -1.8200 H         1 UNK         0.0767 
    103 H103       27.9049   29.1904   -3.0139 H         1 UNK         0.0767 
    104 H104       28.5803   27.4720   -0.9862 H         1 UNK         0.3013 
    105 H105       26.5519   26.9107    2.4302 H         1 UNK         0.3121 
    106 H106       27.7298   29.3422    3.5940 H         1 UNK         0.0774 
    107 H107       25.3236   29.2671    2.8514 H         1 UNK         0.0815 
    108 H108       26.2553   30.4982    2.0110 H         1 UNK         0.0815 
    109 H109       25.8568   28.9974    1.1928 H         1 UNK         0.0815 
    110 H110       29.4500   30.4295    2.7498 H         1 UNK         0.2987 
    111 H111       30.2873   30.1783   -0.0053 H         1 UNK         0.0949 
    112 H112       32.6256   29.5080    0.5678 H         1 UNK         0.0806 
    113 H113       32.2066   29.3780    2.2691 H         1 UNK         0.0806 
    114 H114       31.5322   28.2492    1.1112 H         1 UNK         0.0806 
    115 H115       32.1285   31.7812   -0.3450 H         1 UNK         0.3010 
    116 H116       31.5216   34.3144    0.9575 H         1 UNK         0.0829 
    117 H117       32.0182   34.2283   -1.4673 H         1 UNK         0.0813 
    118 H118       33.2350   35.1853   -0.6382 H         1 UNK         0.0813 
    119 H119       33.6142   33.5480   -1.1520 H         1 UNK         0.0813 
    120 H120       32.2215   34.5302    2.9898 H         1 UNK         0.3038 
    121 H121       33.4221   34.8591    4.7825 H         1 UNK         0.0769 
    122 H122       35.9377   34.6938    3.0418 H         1 UNK         0.0811 
    123 H123       35.8490   35.3370    4.6728 H         1 UNK         0.0811 
    124 H124       35.0000   36.1506    3.3686 H         1 UNK         0.0811 
    125 H125       34.6940   32.1465    2.9195 H         1 UNK         0.3204 
    126 H126       35.7702   30.6288    5.1266 H         1 UNK         0.0748 
    127 H127       36.4984   30.3264    2.7468 H         1 UNK         0.0771 
    128 H128       35.8802   28.8147    3.3885 H         1 UNK         0.0771 
    129 H129       34.8827   29.7754    2.3071 H         1 UNK         0.0771 
    130 H130       34.9909   28.4479    5.6803 H         1 UNK         0.2980 
    131 H131       33.6227   26.9497    6.4677 H         1 UNK         0.0545 
    132 H132       31.8090   29.6962    8.5673 H         1 UNK         0.3459 
    133 H133       33.1162   30.0018    7.4493 H         1 UNK         0.3459 
    134 H134       31.5276   26.3340    5.2672 H         1 UNK         0.0616 
    135 H135       31.5514   27.8442    4.4096 H         1 UNK         0.0616 
    136 H136       34.2601   24.1889    3.6316 H         1 UNK         0.0634 
    137 H137       33.7345   24.6744    5.2235 H         1 UNK         0.0634 
@<TRIPOS>BOND
     1    1    2 1    
     2    1   72 1    
     3    1   73 1    
     4    1   74 1    
     5    2    3 2    
     6    2    4 am   BACKBONE|DICT|INTERRES
     7    4    5 1    
     8    4   75 1    
     9    5    6 1    
    10    5   35 1    
    11    5   76 1    
    12    6    7 1    
    13    6   77 1    
    14    6   78 1    
    15    7    8 1    
    16    8    9 1    
    17    8   79 1    
    18    8   80 1    
    19    9   10 ar   
    20    9   14 ar   
    21   10   11 ar   
    22   10   81 1    
    23   11   12 ar   
    24   11   71 1    
    25   12   13 ar   
    26   12   82 1    
    27   13   14 ar   
    28   13   15 1    
    29   14   83 1    
    30   15   16 1    
    31   15   84 1    
    32   15   85 1    
    33   16   17 1    
    34   17   18 1    
    35   17   86 1    
    36   17   87 1    
    37   18   19 1    
    38   18   37 1    
    39   18   88 1    
    40   19   20 am   BACKBONE|DICT|INTERRES
    41   19   89 1    
    42   20   21 2    
    43   20   22 1    
    44   22   23 1    
    45   22   24 1    
    46   22   90 1    
    47   23   91 1    
    48   23   92 1    
    49   23   93 1    
    50   24   25 am   BACKBONE|DICT|INTERRES
    51   24   94 1    
    52   25   26 2    
    53   25   27 1    
    54   27   28 1    
    55   27   29 1    
    56   27   95 1    
    57   28   96 1    
    58   28   97 1    
    59   28   98 1    
    60   29   30 am   BACKBONE|DICT|INTERRES
    61   29   99 1    
    62   30   31 2    
    63   30   32 1    
    64   32   33 1    
    65   32   34 1    
    66   32  100 1    
    67   33  101 1    
    68   33  102 1    
    69   33  103 1    
    70   34   35 am   BACKBONE|DICT|INTERRES
    71   34  104 1    
    72   35   36 2    
    73   37   38 2    
    74   37   39 am   BACKBONE|DICT|INTERRES
    75   39   40 1    
    76   39  105 1    
    77   40   41 1    
    78   40   42 1    
    79   40  106 1    
    80   41  107 1    
    81   41  108 1    
    82   41  109 1    
    83   42   43 2    
    84   42   44 am   BACKBONE|DICT|INTERRES
    85   44   45 1    
    86   44  110 1    
    87   45   46 1    
    88   45   47 1    
    89   45  111 1    
    90   46  112 1    
    91   46  113 1    
    92   46  114 1    
    93   47   48 2    
    94   47   49 am   BACKBONE|DICT|INTERRES
    95   49   50 1    
    96   49  115 1    
    97   50   51 1    
    98   50   52 1    
    99   50  116 1    
   100   51  117 1    
   101   51  118 1    
   102   51  119 1    
   103   52   53 2    
   104   52   54 am   BACKBONE|DICT|INTERRES
   105   54   55 1    
   106   54  120 1    
   107   55   56 1    
   108   55   57 1    
   109   55  121 1    
   110   56  122 1    
   111   56  123 1    
   112   56  124 1    
   113   57   58 2    
   114   57   59 am   BACKBONE|DICT|INTERRES
   115   59   60 1    
   116   59  125 1    
   117   60   61 1    
   118   60   62 1    
   119   60  126 1    
   120   61  127 1    
   121   61  128 1    
   122   61  129 1    
   123   62   63 2    
   124   62   64 am   BACKBONE|DICT|INTERRES
   125   64   65 1    
   126   64  130 1    
   127   65   66 1    
   128   65   69 1    
   129   65  131 1    
   130   66   67 am   BACKBONE|DICT|INTERRES
   131   66   68 2    
   132   67  132 1    
   133   67  133 1    
   134   69   70 1    
   135   69  134 1    
   136   69  135 1    
   137   70   71 1    
   138   71  136 1    
   139   71  137 1    
@<TRIPOS>SUBSTRUCTURE
     1 UNK         1 GROUP             0       ****    0 ROOT    
