@<TRIPOS>MOLECULE
3R136
137   139    1
SMALL
USER_CHARGES


@<TRIPOS>ATOM
      1 CA         26.6303   20.9462    0.0421 C.3       0 UNK        -0.1979 
      2 C          27.3542   22.2600   -0.2082 C.2       0 UNK         0.4864 
      3 O          27.2030   23.1968    0.5775 O.2       0 UNK        -0.5359 
      4 N          28.1408   22.3383   -1.2924 N.am      1 UNK        -0.4318 
      5 CA         28.8992   23.5273   -1.7071 C.3       1 UNK         0.0824 
      6 C6         29.9630   23.9279   -0.6448 C.3       12 UNK        -0.0944 
      7 S7         31.4332   24.7661   -1.3295 S.3       12 UNK        -0.2672 
      8 C8         32.7915   23.8407   -0.5351 C.3       12 UNK         0.0333 
      9 C9         32.7610   23.9948    0.9798 C.ar      12 UNK        -0.0807 
     10 C10        33.3017   25.1334    1.5835 C.ar      12 UNK        -0.0894 
     11 C11        33.2232   25.3157    2.9688 C.ar      12 UNK        -0.0804 
     12 C12        32.5866   24.3401    3.7462 C.ar      12 UNK        -0.0824 
     13 C13        32.0536   23.1900    3.1556 C.ar      12 UNK        -0.0762 
     14 C14        32.1652   23.0129    1.7762 C.ar      12 UNK        -0.0782 
     15 C15        31.3284   22.1484    3.9969 C.3       12 UNK         0.0230 
     16 S16        29.5161   22.2921    3.8337 S.3       12 UNK        -0.2608 
     17 C17        29.2339   23.9573    4.5218 C.3       12 UNK        -0.0989 
     18 CA         28.9022   24.9967    3.4084 C.3       5 UNK         0.0716 
     19 N          27.5534   24.8166    2.8534 N.am      5 UNK        -0.4135 
     20 C          26.3947   24.9996    3.5014 C.2       4 UNK         0.5031 
     21 O          26.3060   25.3846    4.6695 O.2       4 UNK        -0.5229 
     22 CA         25.1219   24.6994    2.6871 C.3       4 UNK         0.0329 
     23 CB         23.8531   24.6041    3.5629 C.3       4 UNK        -0.2001 
     24 N          24.9323   25.6571    1.5892 N.am      4 UNK        -0.4303 
     25 C          24.7567   26.9841    1.6926 C.2       3 UNK         0.5044 
     26 O          24.7286   27.5980    2.7600 O.2       3 UNK        -0.5152 
     27 CA         24.5509   27.7485    0.3677 C.3       3 UNK         0.0319 
     28 CB         24.5132   29.2803    0.5462 C.3       3 UNK        -0.2001 
     29 N          25.4864   27.3991   -0.7092 N.am      3 UNK        -0.4354 
     30 C          26.8240   27.3143   -0.6571 C.2       2 UNK         0.4964 
     31 O          27.5053   27.3979    0.3701 O.2       2 UNK        -0.5047 
     32 CA         27.5254   27.1048   -2.0072 C.3       2 UNK         0.0288 
     33 CB         28.3666   28.3310   -2.3890 C.3       2 UNK        -0.2113 
     34 N          28.3821   25.9278   -1.9215 N.am      2 UNK        -0.4145 
     35 C          27.9435   24.6776   -2.1048 C.2       1 UNK         0.5006 
     36 O          26.8279   24.4154   -2.5657 O.2       1 UNK        -0.5103 
     37 C          29.1888   26.4561    3.8377 C.2       5 UNK         0.5055 
     38 O          29.8878   26.6703    4.8289 O.2       5 UNK        -0.5220 
     39 N          28.6628   27.4390    3.0919 N.am      6 UNK        -0.4450 
     40 CA         28.9212   28.8621    3.3348 C.3       6 UNK         0.0367 
     41 CB         27.6531   29.6701    3.0282 C.3       6 UNK        -0.1929 
     42 C          30.0888   29.3906    2.4887 C.2       6 UNK         0.5070 
     43 O          30.7376   30.3521    2.9038 O.2       6 UNK        -0.5237 
     44 N          30.3190   28.7807    1.3134 N.am      7 UNK        -0.4739 
     45 CA         31.2793   29.2051    0.2846 C.3       7 UNK         0.0276 
     46 CB         32.7281   29.0142    0.7845 C.3       7 UNK        -0.1927 
     47 C          30.9615   30.6372   -0.1991 C.2       7 UNK         0.5013 
     48 O          29.7896   30.9447   -0.4279 O.2       7 UNK        -0.5193 
     49 N          31.9854   31.4929   -0.3270 N.am      8 UNK        -0.4253 
     50 CA         31.8142   32.9382   -0.4972 C.3       8 UNK         0.0242 
     51 CB         33.1305   33.5698   -0.9819 C.3       8 UNK        -0.2000 
     52 C          31.3289   33.5909    0.8102 C.2       8 UNK         0.4948 
     53 O          30.3431   34.3285    0.7892 O.2       8 UNK        -0.5275 
     54 N          32.0211   33.2708    1.9120 N.am      9 UNK        -0.4246 
     55 CA         31.7410   33.6546    3.2957 C.3       9 UNK         0.0261 
     56 CB         31.6836   35.1912    3.4704 C.3       9 UNK        -0.1959 
     57 C          32.8355   33.0211    4.1678 C.2       9 UNK         0.5033 
     58 O          33.7129   33.7342    4.6608 O.2       9 UNK        -0.5390 
     59 N          32.8140   31.6889    4.2899 N.am      10 UNK        -0.4215 
     60 CA         33.8161   30.9089    5.0198 C.3       10 UNK         0.0240 
     61 CB         34.8953   30.4179    4.0346 C.3       10 UNK        -0.1982 
     62 C          33.1642   29.7338    5.7604 C.2       10 UNK         0.4970 
     63 O          31.9785   29.4625    5.5713 O.2       10 UNK        -0.4916 
     64 N          33.9732   29.0557    6.5843 N.am      11 UNK        -0.4279 
     65 CA         33.6413   27.8225    7.3232 C.3       11 UNK         0.1003 
     66 C          32.5737   27.9866    8.4487 C.2       11 UNK         0.5709 
     67 N          32.2418   29.1995    8.8752 N.am      11 UNK        -0.7358 
     68 O          32.0680   26.9998    8.9788 O.2       11 UNK        -0.4999 
     69 C69        33.3491   26.6091    6.3910 C.3       12 UNK        -0.0954 
     70 S70        34.6746   26.3144    5.1663 S.3       12 UNK        -0.2268 
     71 C71        33.7930   26.5899    3.5914 C.3       12 UNK         0.0203 
     72 H72        25.5528   21.1079    0.0443 H         1 UNK         0.0888 
     73 H73        26.8618   20.2011   -0.7188 H         1 UNK         0.0888 
     74 H74        26.9171   20.5421    1.0126 H         1 UNK         0.0888 
     75 H75        28.1954   21.5492   -1.9211 H         1 UNK         0.3017 
     76 H76        29.4187   23.2373   -2.6217 H         1 UNK         0.0873 
     77 H77        29.5358   24.5388    0.1524 H         1 UNK         0.0745 
     78 H78        30.3010   23.0171   -0.1551 H         1 UNK         0.0745 
     79 H79        33.7435   24.2059   -0.9229 H         1 UNK         0.0705 
     80 H80        32.7298   22.7887   -0.8183 H         1 UNK         0.0705 
     81 H81        33.7702   25.8855    0.9641 H         1 UNK         0.1334 
     82 H82        32.4947   24.4789    4.8134 H         1 UNK         0.1417 
     83 H83        31.7515   22.1228    1.3226 H         1 UNK         0.1562 
     84 H84        31.6078   22.2359    5.0481 H         1 UNK         0.0748 
     85 H85        31.6339   21.1489    3.6836 H         1 UNK         0.0748 
     86 H86        30.1186   24.2365    5.0937 H         1 UNK         0.0940 
     87 H87        28.4320   23.9027    5.2588 H         1 UNK         0.0940 
     88 H88        29.5901   24.8225    2.5798 H         1 UNK         0.0703 
     89 H89        27.5070   24.4164    1.9169 H         1 UNK         0.3081 
     90 H90        25.2623   23.7197    2.2291 H         1 UNK         0.0719 
     91 H91        23.6379   25.5407    4.0781 H         1 UNK         0.0809 
     92 H92        22.9792   24.3408    2.9674 H         1 UNK         0.0809 
     93 H93        23.9683   23.8351    4.3277 H         1 UNK         0.0809 
     94 H94        24.9827   25.2641    0.6594 H         1 UNK         0.2990 
     95 H95        23.5633   27.4465    0.0156 H         1 UNK         0.0690 
     96 H96        24.2289   29.7778   -0.3810 H         1 UNK         0.0788 
     97 H97        25.4803   29.6760    0.8492 H         1 UNK         0.0788 
     98 H98        23.7851   29.5751    1.3031 H         1 UNK         0.0788 
     99 H99        25.0521   27.2625   -1.6118 H         1 UNK         0.2993 
    100 H100       26.7792   26.9568   -2.7913 H         1 UNK         0.0949 
    101 H101       29.1169   28.5523   -1.6334 H         1 UNK         0.0767 
    102 H102       28.8785   28.1835   -3.3401 H         1 UNK         0.0767 
    103 H103       27.7396   29.2180   -2.4893 H         1 UNK         0.0767 
    104 H104       29.3059   26.0577   -1.5317 H         1 UNK         0.3013 
    105 H105       28.1001   27.2110    2.2768 H         1 UNK         0.3121 
    106 H106       29.1736   29.0242    4.3852 H         1 UNK         0.0774 
    107 H107       27.7887   30.7202    3.2895 H         1 UNK         0.0815 
    108 H108       27.4098   29.6292    1.9675 H         1 UNK         0.0815 
    109 H109       26.7952   29.2996    3.5895 H         1 UNK         0.0815 
    110 H110       29.6686   28.0576    1.0358 H         1 UNK         0.2987 
    111 H111       31.1400   28.5439   -0.5708 H         1 UNK         0.0949 
    112 H112       32.8685   28.0093    1.1761 H         1 UNK         0.0806 
    113 H113       33.4503   29.1446   -0.0222 H         1 UNK         0.0806 
    114 H114       32.9805   29.7135    1.5807 H         1 UNK         0.0806 
    115 H115       32.9205   31.1549   -0.1548 H         1 UNK         0.3010 
    116 H116       31.0544   33.1121   -1.2628 H         1 UNK         0.0829 
    117 H117       33.4354   33.1575   -1.9440 H         1 UNK         0.0813 
    118 H118       33.0178   34.6468   -1.1143 H         1 UNK         0.0813 
    119 H119       33.9472   33.4125   -0.2765 H         1 UNK         0.0813 
    120 H120       32.8068   32.6446    1.8082 H         1 UNK         0.3038 
    121 H121       30.7811   33.2258    3.5901 H         1 UNK         0.0769 
    122 H122       31.6042   35.4611    4.5243 H         1 UNK         0.0811 
    123 H123       30.8183   35.6263    2.9718 H         1 UNK         0.0811 
    124 H124       32.5774   35.6752    3.0752 H         1 UNK         0.0811 
    125 H125       32.0367   31.1530    3.8941 H         1 UNK         0.3204 
    126 H126       34.2880   31.5377    5.7781 H         1 UNK         0.0748 
    127 H127       35.7157   29.9247    4.5570 H         1 UNK         0.0771 
    128 H128       34.4919   29.7002    3.3212 H         1 UNK         0.0771 
    129 H129       35.3276   31.2454    3.4717 H         1 UNK         0.0771 
    130 H130       34.9260   29.3714    6.6908 H         1 UNK         0.2980 
    131 H131       34.5540   27.5786    7.8678 H         1 UNK         0.0545 
    132 H132       31.5617   29.2942    9.6127 H         1 UNK         0.3459 
    133 H133       32.6516   30.0181    8.4559 H         1 UNK         0.3459 
    134 H134       32.3927   26.7433    5.8843 H         1 UNK         0.0616 
    135 H135       33.2492   25.6955    6.9791 H         1 UNK         0.0616 
    136 H136       32.9897   27.3158    3.7268 H         1 UNK         0.0634 
    137 H137       34.5035   27.0500    2.9032 H         1 UNK         0.0634 
@<TRIPOS>BOND
     1    1    2 1    
     2    1   72 1    
     3    1   73 1    
     4    1   74 1    
     5    2    3 2    
     6    2    4 am   BACKBONE|DICT|INTERRES
     7    4    5 1    
     8    4   75 1    
     9    5    6 1    
    10    5   35 1    
    11    5   76 1    
    12    6    7 1    
    13    6   77 1    
    14    6   78 1    
    15    7    8 1    
    16    8    9 1    
    17    8   79 1    
    18    8   80 1    
    19    9   10 ar   
    20    9   14 ar   
    21   10   11 ar   
    22   10   81 1    
    23   11   12 ar   
    24   11   71 1    
    25   12   13 ar   
    26   12   82 1    
    27   13   14 ar   
    28   13   15 1    
    29   14   83 1    
    30   15   16 1    
    31   15   84 1    
    32   15   85 1    
    33   16   17 1    
    34   17   18 1    
    35   17   86 1    
    36   17   87 1    
    37   18   19 1    
    38   18   37 1    
    39   18   88 1    
    40   19   20 am   BACKBONE|DICT|INTERRES
    41   19   89 1    
    42   20   21 2    
    43   20   22 1    
    44   22   23 1    
    45   22   24 1    
    46   22   90 1    
    47   23   91 1    
    48   23   92 1    
    49   23   93 1    
    50   24   25 am   BACKBONE|DICT|INTERRES
    51   24   94 1    
    52   25   26 2    
    53   25   27 1    
    54   27   28 1    
    55   27   29 1    
    56   27   95 1    
    57   28   96 1    
    58   28   97 1    
    59   28   98 1    
    60   29   30 am   BACKBONE|DICT|INTERRES
    61   29   99 1    
    62   30   31 2    
    63   30   32 1    
    64   32   33 1    
    65   32   34 1    
    66   32  100 1    
    67   33  101 1    
    68   33  102 1    
    69   33  103 1    
    70   34   35 am   BACKBONE|DICT|INTERRES
    71   34  104 1    
    72   35   36 2    
    73   37   38 2    
    74   37   39 am   BACKBONE|DICT|INTERRES
    75   39   40 1    
    76   39  105 1    
    77   40   41 1    
    78   40   42 1    
    79   40  106 1    
    80   41  107 1    
    81   41  108 1    
    82   41  109 1    
    83   42   43 2    
    84   42   44 am   BACKBONE|DICT|INTERRES
    85   44   45 1    
    86   44  110 1    
    87   45   46 1    
    88   45   47 1    
    89   45  111 1    
    90   46  112 1    
    91   46  113 1    
    92   46  114 1    
    93   47   48 2    
    94   47   49 am   BACKBONE|DICT|INTERRES
    95   49   50 1    
    96   49  115 1    
    97   50   51 1    
    98   50   52 1    
    99   50  116 1    
   100   51  117 1    
   101   51  118 1    
   102   51  119 1    
   103   52   53 2    
   104   52   54 am   BACKBONE|DICT|INTERRES
   105   54   55 1    
   106   54  120 1    
   107   55   56 1    
   108   55   57 1    
   109   55  121 1    
   110   56  122 1    
   111   56  123 1    
   112   56  124 1    
   113   57   58 2    
   114   57   59 am   BACKBONE|DICT|INTERRES
   115   59   60 1    
   116   59  125 1    
   117   60   61 1    
   118   60   62 1    
   119   60  126 1    
   120   61  127 1    
   121   61  128 1    
   122   61  129 1    
   123   62   63 2    
   124   62   64 am   BACKBONE|DICT|INTERRES
   125   64   65 1    
   126   64  130 1    
   127   65   66 1    
   128   65   69 1    
   129   65  131 1    
   130   66   67 am   BACKBONE|DICT|INTERRES
   131   66   68 2    
   132   67  132 1    
   133   67  133 1    
   134   69   70 1    
   135   69  134 1    
   136   69  135 1    
   137   70   71 1    
   138   71  136 1    
   139   71  137 1    
@<TRIPOS>SUBSTRUCTURE
     1 UNK         1 GROUP             0       ****    0 ROOT    
