@<TRIPOS>MOLECULE
3R136
137   139    1
SMALL
USER_CHARGES


@<TRIPOS>ATOM
      1 CA         30.5201   25.8241   -5.4618 C.3       0 UNK        -0.1979 
      2 C          29.9320   26.1867   -4.1063 C.2       0 UNK         0.4864 
      3 O          29.7630   27.3701   -3.8116 O.2       0 UNK        -0.5359 
      4 N          29.6258   25.1781   -3.2797 N.am      1 UNK        -0.4318 
      5 CA         29.0054   25.3322   -1.9614 C.3       1 UNK         0.0824 
      6 C6         29.1935   24.0539   -1.0967 C.3       12 UNK        -0.0944 
      7 S7         29.6836   24.4629    0.6056 S.3       12 UNK        -0.2672 
      8 C8         31.1839   23.4469    0.8130 C.3       12 UNK         0.0333 
      9 C9         31.8291   23.7453    2.1555 C.ar      12 UNK        -0.0807 
     10 C10        32.7296   24.8054    2.2730 C.ar      12 UNK        -0.0894 
     11 C11        33.2164   25.1900    3.5236 C.ar      12 UNK        -0.0804 
     12 C12        32.8044   24.4957    4.6648 C.ar      12 UNK        -0.0824 
     13 C13        31.9187   23.4181    4.5584 C.ar      12 UNK        -0.0762 
     14 C14        31.4674   23.0201    3.2946 C.ar      12 UNK        -0.0782 
     15 C15        31.4019   22.7285    5.8158 C.3       12 UNK         0.0230 
     16 S16        29.5854   22.8450    5.9950 S.3       12 UNK        -0.2608 
     17 C17        29.2618   24.6321    5.7851 C.3       12 UNK        -0.0989 
     18 CA         28.8161   25.0020    4.3415 C.3       5 UNK         0.0716 
     19 N          27.4890   24.5094    3.9825 N.am      5 UNK        -0.4135 
     20 C          27.2136   23.3826    3.3178 C.2       4 UNK         0.5031 
     21 O          28.0541   22.5486    2.9827 O.2       4 UNK        -0.5229 
     22 CA         25.7414   23.1367    2.9433 C.3       4 UNK         0.0329 
     23 CB         24.8848   22.8426    4.1919 C.3       4 UNK        -0.2001 
     24 N          25.1366   24.1830    2.1033 N.am      4 UNK        -0.4303 
     25 C          24.8770   25.4597    2.4167 C.2       3 UNK         0.5044 
     26 O          25.1966   25.9903    3.4821 O.2       3 UNK        -0.5152 
     27 CA         24.1525   26.2777    1.3419 C.3       3 UNK         0.0319 
     28 CB         23.4995   27.5552    1.9125 C.3       3 UNK        -0.2001 
     29 N          25.0833   26.6235    0.2678 N.am      3 UNK        -0.4354 
     30 C          24.7103   26.9563   -0.9747 C.2       2 UNK         0.4964 
     31 O          23.5472   26.9000   -1.3762 O.2       2 UNK        -0.5047 
     32 CA         25.7976   27.4740   -1.9290 C.3       2 UNK         0.0288 
     33 CB         25.8792   29.0076   -1.8507 C.3       2 UNK        -0.2113 
     34 N          27.1269   26.9092   -1.6821 N.am      2 UNK        -0.4145 
     35 C          27.5190   25.7104   -2.1348 C.2       1 UNK         0.5006 
     36 O          26.7660   24.9213   -2.7117 O.2       1 UNK        -0.5103 
     37 C          28.8159   26.5123    4.0798 C.2       5 UNK         0.5055 
     38 O          28.7146   27.3027    5.0192 O.2       5 UNK        -0.5220 
     39 N          28.8823   26.8801    2.7949 N.am      6 UNK        -0.4450 
     40 CA         28.8437   28.2575    2.3150 C.3       6 UNK         0.0367 
     41 CB         27.4120   28.8271    2.4063 C.3       6 UNK        -0.1929 
     42 C          29.4156   28.3164    0.8943 C.2       6 UNK         0.5070 
     43 O          28.6870   28.6286   -0.0472 O.2       6 UNK        -0.5237 
     44 N          30.7050   27.9888    0.7458 N.am      7 UNK        -0.4739 
     45 CA         31.4571   28.2563   -0.4897 C.3       7 UNK         0.0276 
     46 CB         32.5790   27.2209   -0.6515 C.3       7 UNK        -0.1927 
     47 C          32.0292   29.6864   -0.5079 C.2       7 UNK         0.5013 
     48 O          32.3160   30.2151   -1.5822 O.2       7 UNK        -0.5193 
     49 N          32.1716   30.2848    0.6788 N.am      8 UNK        -0.4253 
     50 CA         32.6096   31.6472    0.9444 C.3       8 UNK         0.0242 
     51 CB         34.1454   31.7309    0.8558 C.3       8 UNK        -0.2000 
     52 C          32.1189   32.0075    2.3516 C.2       8 UNK         0.4948 
     53 O          31.7488   31.1104    3.1152 O.2       8 UNK        -0.5275 
     54 N          32.1691   33.3006    2.6996 N.am      9 UNK        -0.4246 
     55 CA         31.8034   33.8181    4.0272 C.3       9 UNK         0.0261 
     56 CB         31.8785   35.3534    4.0170 C.3       9 UNK        -0.1959 
     57 C          32.6560   33.2440    5.1764 C.2       9 UNK         0.5033 
     58 O          32.1623   33.1224    6.2985 O.2       9 UNK        -0.5390 
     59 N          33.9015   32.8587    4.8632 N.am      10 UNK        -0.4215 
     60 CA         34.8400   32.1804    5.7595 C.3       10 UNK         0.0240 
     61 CB         36.2095   32.0863    5.0661 C.3       10 UNK        -0.1982 
     62 C          34.3797   30.7846    6.2252 C.2       10 UNK         0.4970 
     63 O          34.8854   30.3087    7.2426 O.2       10 UNK        -0.4916 
     64 N          33.4458   30.1543    5.4978 N.am      11 UNK        -0.4279 
     65 CA         32.8455   28.8628    5.8669 C.3       11 UNK         0.1003 
     66 C          31.8403   28.9442    7.0534 C.2       11 UNK         0.5709 
     67 N          31.3934   30.1239    7.4731 N.am      11 UNK        -0.7358 
     68 O          31.4754   27.9151    7.6164 O.2       11 UNK        -0.4999 
     69 C69        32.2025   28.1476    4.6510 C.3       12 UNK        -0.0954 
     70 S70        33.3398   27.9503    3.2379 S.3       12 UNK        -0.2268 
     71 C71        34.1631   26.3755    3.6371 C.3       12 UNK         0.0203 
     72 H72        31.5048   26.2764   -5.5760 H         1 UNK         0.0888 
     73 H73        30.6256   24.7465   -5.5862 H         1 UNK         0.0888 
     74 H74        29.8789   26.1966   -6.2603 H         1 UNK         0.0888 
     75 H75        29.7521   24.2270   -3.5949 H         1 UNK         0.3017 
     76 H76        29.5139   26.1662   -1.4745 H         1 UNK         0.0873 
     77 H77        29.9650   23.4112   -1.5236 H         1 UNK         0.0745 
     78 H78        28.2964   23.4322   -1.0618 H         1 UNK         0.0745 
     79 H79        30.9216   22.3901    0.7420 H         1 UNK         0.0705 
     80 H80        31.8864   23.6542    0.0043 H         1 UNK         0.0705 
     81 H81        33.0229   25.3596    1.3949 H         1 UNK         0.1334 
     82 H82        33.1551   24.8108    5.6382 H         1 UNK         0.1417 
     83 H83        30.7532   22.2113    3.2122 H         1 UNK         0.1562 
     84 H84        31.8669   23.1500    6.7085 H         1 UNK         0.0748 
     85 H85        31.6879   21.6763    5.7888 H         1 UNK         0.0748 
     86 H86        30.1629   25.1824    6.0637 H         1 UNK         0.0940 
     87 H87        28.4973   24.9313    6.5042 H         1 UNK         0.0940 
     88 H88        29.5335   24.5937    3.6383 H         1 UNK         0.0703 
     89 H89        26.7186   25.1603    4.1258 H         1 UNK         0.3081 
     90 H90        25.7282   22.2334    2.3308 H         1 UNK         0.0719 
     91 H91        23.8694   22.5581    3.9164 H         1 UNK         0.0809 
     92 H92        24.8209   23.7007    4.8615 H         1 UNK         0.0809 
     93 H93        25.3075   22.0170    4.7660 H         1 UNK         0.0809 
     94 H94        24.8721   23.8762    1.1768 H         1 UNK         0.2990 
     95 H95        23.3589   25.6439    0.9397 H         1 UNK         0.0690 
     96 H96        22.9012   28.0692    1.1602 H         1 UNK         0.0788 
     97 H97        24.2443   28.2595    2.2845 H         1 UNK         0.0788 
     98 H98        22.8339   27.3155    2.7427 H         1 UNK         0.0788 
     99 H99        26.0621   26.6667    0.5130 H         1 UNK         0.2993 
    100 H100       25.4921   27.2091   -2.9440 H         1 UNK         0.0949 
    101 H101       24.9171   29.4634   -2.0889 H         1 UNK         0.0767 
    102 H102       26.1629   29.3469   -0.8535 H         1 UNK         0.0767 
    103 H103       26.6092   29.4021   -2.5580 H         1 UNK         0.0767 
    104 H104       27.7943   27.5200   -1.2122 H         1 UNK         0.3013 
    105 H105       28.9975   26.1644    2.0854 H         1 UNK         0.3121 
    106 H106       29.4903   28.8738    2.9418 H         1 UNK         0.0774 
    107 H107       27.3743   29.8502    2.0303 H         1 UNK         0.0815 
    108 H108       26.7071   28.2391    1.8221 H         1 UNK         0.0815 
    109 H109       27.0524   28.8499    3.4349 H         1 UNK         0.0815 
    110 H110       31.2364   27.6844    1.5508 H         1 UNK         0.2987 
    111 H111       30.7952   28.1676   -1.3537 H         1 UNK         0.0949 
    112 H112       33.1117   27.3730   -1.5911 H         1 UNK         0.0806 
    113 H113       33.3132   27.2920    0.1513 H         1 UNK         0.0806 
    114 H114       32.1803   26.2067   -0.6698 H         1 UNK         0.0806 
    115 H115       31.8843   29.7965    1.5185 H         1 UNK         0.3010 
    116 H116       32.1484   32.3241    0.2223 H         1 UNK         0.0829 
    117 H117       34.5014   31.4516   -0.1360 H         1 UNK         0.0813 
    118 H118       34.5001   32.7438    1.0488 H         1 UNK         0.0813 
    119 H119       34.6255   31.0698    1.5790 H         1 UNK         0.0813 
    120 H120       32.4823   33.9785    2.0187 H         1 UNK         0.3038 
    121 H121       30.7683   33.5273    4.2187 H         1 UNK         0.0769 
    122 H122       31.5885   35.7642    4.9853 H         1 UNK         0.0811 
    123 H123       31.2051   35.7796    3.2731 H         1 UNK         0.0811 
    124 H124       32.8871   35.7084    3.8018 H         1 UNK         0.0811 
    125 H125       34.2122   33.0069    3.9146 H         1 UNK         0.3204 
    126 H126       34.9480   32.7986    6.6531 H         1 UNK         0.0748 
    127 H127       36.9468   31.6163    5.7187 H         1 UNK         0.0771 
    128 H128       36.1590   31.4931    4.1519 H         1 UNK         0.0771 
    129 H129       36.5935   33.0733    4.8072 H         1 UNK         0.0771 
    130 H130       33.0510   30.6014    4.6785 H         1 UNK         0.2980 
    131 H131       33.6567   28.2212    6.2159 H         1 UNK         0.0545 
    132 H132       31.6921   30.9805    7.0271 H         1 UNK         0.3459 
    133 H133       30.7488   30.1576    8.2464 H         1 UNK         0.3459 
    134 H134       31.3400   28.7170    4.3054 H         1 UNK         0.0616 
    135 H135       31.8156   27.1690    4.9375 H         1 UNK         0.0616 
    136 H136       34.9970   26.2327    2.9486 H         1 UNK         0.0634 
    137 H137       34.5972   26.4384    4.6360 H         1 UNK         0.0634 
@<TRIPOS>BOND
     1    1    2 1    
     2    1   72 1    
     3    1   73 1    
     4    1   74 1    
     5    2    3 2    
     6    2    4 am   BACKBONE|DICT|INTERRES
     7    4    5 1    
     8    4   75 1    
     9    5    6 1    
    10    5   35 1    
    11    5   76 1    
    12    6    7 1    
    13    6   77 1    
    14    6   78 1    
    15    7    8 1    
    16    8    9 1    
    17    8   79 1    
    18    8   80 1    
    19    9   10 ar   
    20    9   14 ar   
    21   10   11 ar   
    22   10   81 1    
    23   11   12 ar   
    24   11   71 1    
    25   12   13 ar   
    26   12   82 1    
    27   13   14 ar   
    28   13   15 1    
    29   14   83 1    
    30   15   16 1    
    31   15   84 1    
    32   15   85 1    
    33   16   17 1    
    34   17   18 1    
    35   17   86 1    
    36   17   87 1    
    37   18   19 1    
    38   18   37 1    
    39   18   88 1    
    40   19   20 am   BACKBONE|DICT|INTERRES
    41   19   89 1    
    42   20   21 2    
    43   20   22 1    
    44   22   23 1    
    45   22   24 1    
    46   22   90 1    
    47   23   91 1    
    48   23   92 1    
    49   23   93 1    
    50   24   25 am   BACKBONE|DICT|INTERRES
    51   24   94 1    
    52   25   26 2    
    53   25   27 1    
    54   27   28 1    
    55   27   29 1    
    56   27   95 1    
    57   28   96 1    
    58   28   97 1    
    59   28   98 1    
    60   29   30 am   BACKBONE|DICT|INTERRES
    61   29   99 1    
    62   30   31 2    
    63   30   32 1    
    64   32   33 1    
    65   32   34 1    
    66   32  100 1    
    67   33  101 1    
    68   33  102 1    
    69   33  103 1    
    70   34   35 am   BACKBONE|DICT|INTERRES
    71   34  104 1    
    72   35   36 2    
    73   37   38 2    
    74   37   39 am   BACKBONE|DICT|INTERRES
    75   39   40 1    
    76   39  105 1    
    77   40   41 1    
    78   40   42 1    
    79   40  106 1    
    80   41  107 1    
    81   41  108 1    
    82   41  109 1    
    83   42   43 2    
    84   42   44 am   BACKBONE|DICT|INTERRES
    85   44   45 1    
    86   44  110 1    
    87   45   46 1    
    88   45   47 1    
    89   45  111 1    
    90   46  112 1    
    91   46  113 1    
    92   46  114 1    
    93   47   48 2    
    94   47   49 am   BACKBONE|DICT|INTERRES
    95   49   50 1    
    96   49  115 1    
    97   50   51 1    
    98   50   52 1    
    99   50  116 1    
   100   51  117 1    
   101   51  118 1    
   102   51  119 1    
   103   52   53 2    
   104   52   54 am   BACKBONE|DICT|INTERRES
   105   54   55 1    
   106   54  120 1    
   107   55   56 1    
   108   55   57 1    
   109   55  121 1    
   110   56  122 1    
   111   56  123 1    
   112   56  124 1    
   113   57   58 2    
   114   57   59 am   BACKBONE|DICT|INTERRES
   115   59   60 1    
   116   59  125 1    
   117   60   61 1    
   118   60   62 1    
   119   60  126 1    
   120   61  127 1    
   121   61  128 1    
   122   61  129 1    
   123   62   63 2    
   124   62   64 am   BACKBONE|DICT|INTERRES
   125   64   65 1    
   126   64  130 1    
   127   65   66 1    
   128   65   69 1    
   129   65  131 1    
   130   66   67 am   BACKBONE|DICT|INTERRES
   131   66   68 2    
   132   67  132 1    
   133   67  133 1    
   134   69   70 1    
   135   69  134 1    
   136   69  135 1    
   137   70   71 1    
   138   71  136 1    
   139   71  137 1    
@<TRIPOS>SUBSTRUCTURE
     1 UNK         1 GROUP             0       ****    0 ROOT    
