@<TRIPOS>MOLECULE
3R136
137   139    1
SMALL
USER_CHARGES


@<TRIPOS>ATOM
      1 CA         30.9084   23.3694    5.7924 C.3       0 UNK        -0.1979 
      2 C          29.7121   23.6878    4.9090 C.2       0 UNK         0.4864 
      3 O          28.6376   24.0006    5.4253 O.2       0 UNK        -0.5359 
      4 N          29.8811   23.6141    3.5819 N.am      1 UNK        -0.4318 
      5 CA         28.8208   23.8075    2.5845 C.3       1 UNK         0.0824 
      6 C6         29.0781   23.0158    1.2761 C.3       12 UNK        -0.0944 
      7 S7         29.3952   21.2398    1.6029 S.3       12 UNK        -0.2672 
      8 C8         30.6744   20.7694    0.3845 C.3       12 UNK         0.0333 
      9 C9         31.7674   21.8170    0.2233 C.ar      12 UNK        -0.0807 
     10 C10        32.5476   22.2088    1.3149 C.ar      12 UNK        -0.0894 
     11 C11        33.4709   23.2511    1.1878 C.ar      12 UNK        -0.0804 
     12 C12        33.6442   23.8724   -0.0540 C.ar      12 UNK        -0.0824 
     13 C13        32.8869   23.4680   -1.1587 C.ar      12 UNK        -0.0762 
     14 C14        31.9520   22.4404   -1.0132 C.ar      12 UNK        -0.0782 
     15 C15        33.0548   24.1482   -2.5101 C.3       12 UNK         0.0230 
     16 S16        32.3478   25.8262   -2.5395 S.3       12 UNK        -0.2608 
     17 C17        30.6217   25.5463   -1.9969 C.3       12 UNK        -0.0989 
     18 CA         29.7236   26.8119   -2.0735 C.3       5 UNK         0.0716 
     19 N          28.3701   26.5499   -1.5871 N.am      5 UNK        -0.4135 
     20 C          27.3070   26.3349   -2.3707 C.2       4 UNK         0.5031 
     21 O          27.3529   26.2926   -3.6011 O.2       4 UNK        -0.5229 
     22 CA         25.9543   26.1367   -1.6666 C.3       4 UNK         0.0329 
     23 CB         25.8016   24.6841   -1.1883 C.3       4 UNK        -0.2001 
     24 N          25.7485   27.0408   -0.5337 N.am      4 UNK        -0.4303 
     25 C          25.6175   28.3720   -0.6003 C.2       3 UNK         0.5044 
     26 O          25.6568   29.0104   -1.6519 O.2       3 UNK        -0.5152 
     27 CA         25.4174   29.1304    0.7276 C.3       3 UNK         0.0319 
     28 CB         23.9475   29.0760    1.1863 C.3       3 UNK        -0.2001 
     29 N          26.3368   28.7255    1.8012 N.am      3 UNK        -0.4354 
     30 C          26.4395   27.5455    2.4216 C.2       2 UNK         0.4964 
     31 O          25.6640   26.6016    2.2460 O.2       2 UNK        -0.5047 
     32 CA         27.6426   27.3844    3.3658 C.3       2 UNK         0.0288 
     33 CB         27.2811   27.8175    4.7948 C.3       2 UNK        -0.2113 
     34 N          28.1130   25.9998    3.3909 N.am      2 UNK        -0.4145 
     35 C          28.5741   25.3108    2.3384 C.2       1 UNK         0.5006 
     36 O          28.8057   25.8196    1.2352 O.2       1 UNK        -0.5103 
     37 C          30.3068   28.0054   -1.3012 C.2       5 UNK         0.5055 
     38 O          30.6602   29.0150   -1.9117 O.2       5 UNK        -0.5220 
     39 N          30.4116   27.8662    0.0259 N.am      6 UNK        -0.4450 
     40 CA         31.2225   28.7313    0.8857 C.3       6 UNK         0.0367 
     41 CB         31.7872   27.8748    2.0264 C.3       6 UNK        -0.1929 
     42 C          30.5073   30.0001    1.3905 C.2       6 UNK         0.5070 
     43 O          30.9515   30.5877    2.3802 O.2       6 UNK        -0.5237 
     44 N          29.4309   30.4106    0.7015 N.am      7 UNK        -0.4739 
     45 CA         28.6510   31.6380    0.9152 C.3       7 UNK         0.0276 
     46 CB         29.4641   32.8602    0.4306 C.3       7 UNK        -0.1927 
     47 C          28.1385   31.7712    2.3642 C.2       7 UNK         0.5013 
     48 O          27.8231   30.7548    2.9839 O.2       7 UNK        -0.5193 
     49 N          28.0663   33.0017    2.8853 N.am      8 UNK        -0.4253 
     50 CA         27.7409   33.2801    4.2871 C.3       8 UNK         0.0242 
     51 CB         27.2197   34.7227    4.4006 C.3       8 UNK        -0.2000 
     52 C          28.9355   33.0624    5.2375 C.2       8 UNK         0.4948 
     53 O          28.7280   32.9999    6.4498 O.2       8 UNK        -0.5275 
     54 N          30.1569   32.9838    4.6879 N.am      9 UNK        -0.4246 
     55 CA         31.4052   32.8343    5.4376 C.3       9 UNK         0.0261 
     56 CB         32.5923   33.1821    4.5241 C.3       9 UNK        -0.1959 
     57 C          31.5848   31.4333    6.0440 C.2       9 UNK         0.5033 
     58 O          32.0700   31.3341    7.1726 O.2       9 UNK        -0.5390 
     59 N          31.1965   30.3972    5.2835 N.am      10 UNK        -0.4215 
     60 CA         31.3744   28.9640    5.5544 C.3       10 UNK         0.0240 
     61 CB         30.7429   28.5498    6.9015 C.3       10 UNK        -0.1982 
     62 C          32.8464   28.5158    5.4333 C.2       10 UNK         0.4970 
     63 O          33.7458   29.3396    5.2510 O.2       10 UNK        -0.4916 
     64 N          33.0598   27.1955    5.4842 N.am      11 UNK        -0.4279 
     65 CA         34.3750   26.5536    5.2996 C.3       11 UNK         0.1003 
     66 C          35.3592   26.7219    6.4950 C.2       11 UNK         0.5709 
     67 N          34.9265   27.2030    7.6546 N.am      11 UNK        -0.7358 
     68 O          36.5415   26.4138    6.3640 O.2       11 UNK        -0.4999 
     69 C69        34.2359   25.0586    4.9061 C.3       12 UNK        -0.0954 
     70 S70        33.1994   24.8123    3.4256 S.3       12 UNK        -0.2268 
     71 C71        34.2430   23.7271    2.4076 C.3       12 UNK         0.0203 
     72 H72        30.6137   22.6896    6.5913 H         1 UNK         0.0888 
     73 H73        31.2943   24.2811    6.2464 H         1 UNK         0.0888 
     74 H74        31.7120   22.8941    5.2304 H         1 UNK         0.0888 
     75 H75        30.7931   23.3979    3.2052 H         1 UNK         0.3017 
     76 H76        27.8913   23.4125    3.0013 H         1 UNK         0.0873 
     77 H77        29.9044   23.4671    0.7297 H         1 UNK         0.0745 
     78 H78        28.2131   23.0834    0.6153 H         1 UNK         0.0745 
     79 H79        31.1258   19.8255    0.6924 H         1 UNK         0.0705 
     80 H80        30.1821   20.5755   -0.5697 H         1 UNK         0.0705 
     81 H81        32.3997   21.7348    2.2757 H         1 UNK         0.1334 
     82 H82        34.3506   24.6848   -0.1580 H         1 UNK         0.1417 
     83 H83        31.3471   22.1442   -1.8596 H         1 UNK         0.1562 
     84 H84        32.5941   23.5565   -3.3027 H         1 UNK         0.0748 
     85 H85        34.1163   24.2082   -2.7544 H         1 UNK         0.0748 
     86 H86        30.6385   25.1585   -0.9767 H         1 UNK         0.0940 
     87 H87        30.1913   24.7554   -2.6131 H         1 UNK         0.0940 
     88 H88        29.6798   27.1213   -3.1203 H         1 UNK         0.0703 
     89 H89        28.2509   26.5190   -0.5800 H         1 UNK         0.3081 
     90 H90        25.1696   26.3391   -2.3985 H         1 UNK         0.0719 
     91 H91        26.5200   24.4412   -0.4051 H         1 UNK         0.0809 
     92 H92        24.8024   24.5009   -0.7928 H         1 UNK         0.0809 
     93 H93        25.9590   23.9818   -2.0082 H         1 UNK         0.0809 
     94 H94        25.6894   26.6222    0.3919 H         1 UNK         0.2990 
     95 H95        25.6520   30.1765    0.5260 H         1 UNK         0.0690 
     96 H96        23.7936   29.6660    2.0898 H         1 UNK         0.0788 
     97 H97        23.6174   28.0573    1.3913 H         1 UNK         0.0788 
     98 H98        23.2867   29.4803    0.4184 H         1 UNK         0.0788 
     99 H99        26.9871   29.4508    2.1043 H         1 UNK         0.2993 
    100 H100       28.4613   28.0092    3.0023 H         1 UNK         0.0949 
    101 H101       26.9685   28.8624    4.8197 H         1 UNK         0.0767 
    102 H102       26.4637   27.2208    5.2019 H         1 UNK         0.0767 
    103 H103       28.1344   27.7202    5.4657 H         1 UNK         0.0767 
    104 H104       27.9922   25.4871    4.2591 H         1 UNK         0.3013 
    105 H105       30.0229   27.0358    0.4664 H         1 UNK         0.3121 
    106 H106       32.0771   29.0871    0.3060 H         1 UNK         0.0774 
    107 H107       32.4784   28.4524    2.6385 H         1 UNK         0.0815 
    108 H108       32.3487   27.0274    1.6333 H         1 UNK         0.0815 
    109 H109       30.9999   27.4830    2.6695 H         1 UNK         0.0815 
    110 H110       29.1660   29.8539   -0.0987 H         1 UNK         0.2987 
    111 H111       27.7646   31.5557    0.2848 H         1 UNK         0.0949 
    112 H112       30.3290   33.0534    1.0666 H         1 UNK         0.0806 
    113 H113       29.8339   32.7044   -0.5832 H         1 UNK         0.0806 
    114 H114       28.8564   33.7653    0.4034 H         1 UNK         0.0806 
    115 H115       28.3204   33.7914    2.3092 H         1 UNK         0.3010 
    116 H116       26.9440   32.6044    4.6061 H         1 UNK         0.0829 
    117 H117       26.3373   34.8762    3.7790 H         1 UNK         0.0813 
    118 H118       26.9336   34.9547    5.4276 H         1 UNK         0.0813 
    119 H119       27.9743   35.4511    4.1010 H         1 UNK         0.0813 
    120 H120       30.2329   33.0090    3.6819 H         1 UNK         0.3038 
    121 H121       31.3914   33.5516    6.2613 H         1 UNK         0.0769 
    122 H122       32.6474   32.5166    3.6612 H         1 UNK         0.0811 
    123 H123       33.5366   33.0925    5.0631 H         1 UNK         0.0811 
    124 H124       32.5254   34.2061    4.1565 H         1 UNK         0.0811 
    125 H125       30.9015   30.6110    4.3330 H         1 UNK         0.3204 
    126 H126       30.8195   28.4561    4.7661 H         1 UNK         0.0748 
    127 H127       29.7387   28.9599    7.0103 H         1 UNK         0.0771 
    128 H128       30.6558   27.4658    6.9814 H         1 UNK         0.0771 
    129 H129       31.3344   28.8892    7.7523 H         1 UNK         0.0771 
    130 H130       32.2815   26.5705    5.6231 H         1 UNK         0.2980 
    131 H131       34.8561   27.0565    4.4583 H         1 UNK         0.0545 
    132 H132       35.5762   27.3099    8.4175 H         1 UNK         0.3459 
    133 H133       33.9626   27.4695    7.7700 H         1 UNK         0.3459 
    134 H134       35.2200   24.6242    4.7204 H         1 UNK         0.0616 
    135 H135       33.8021   24.4857    5.7271 H         1 UNK         0.0616 
    136 H136       35.1456   24.2632    2.1115 H         1 UNK         0.0634 
    137 H137       34.5646   22.8687    2.9990 H         1 UNK         0.0634 
@<TRIPOS>BOND
     1    1    2 1    
     2    1   72 1    
     3    1   73 1    
     4    1   74 1    
     5    2    3 2    
     6    2    4 am   BACKBONE|DICT|INTERRES
     7    4    5 1    
     8    4   75 1    
     9    5    6 1    
    10    5   35 1    
    11    5   76 1    
    12    6    7 1    
    13    6   77 1    
    14    6   78 1    
    15    7    8 1    
    16    8    9 1    
    17    8   79 1    
    18    8   80 1    
    19    9   10 ar   
    20    9   14 ar   
    21   10   11 ar   
    22   10   81 1    
    23   11   12 ar   
    24   11   71 1    
    25   12   13 ar   
    26   12   82 1    
    27   13   14 ar   
    28   13   15 1    
    29   14   83 1    
    30   15   16 1    
    31   15   84 1    
    32   15   85 1    
    33   16   17 1    
    34   17   18 1    
    35   17   86 1    
    36   17   87 1    
    37   18   19 1    
    38   18   37 1    
    39   18   88 1    
    40   19   20 am   BACKBONE|DICT|INTERRES
    41   19   89 1    
    42   20   21 2    
    43   20   22 1    
    44   22   23 1    
    45   22   24 1    
    46   22   90 1    
    47   23   91 1    
    48   23   92 1    
    49   23   93 1    
    50   24   25 am   BACKBONE|DICT|INTERRES
    51   24   94 1    
    52   25   26 2    
    53   25   27 1    
    54   27   28 1    
    55   27   29 1    
    56   27   95 1    
    57   28   96 1    
    58   28   97 1    
    59   28   98 1    
    60   29   30 am   BACKBONE|DICT|INTERRES
    61   29   99 1    
    62   30   31 2    
    63   30   32 1    
    64   32   33 1    
    65   32   34 1    
    66   32  100 1    
    67   33  101 1    
    68   33  102 1    
    69   33  103 1    
    70   34   35 am   BACKBONE|DICT|INTERRES
    71   34  104 1    
    72   35   36 2    
    73   37   38 2    
    74   37   39 am   BACKBONE|DICT|INTERRES
    75   39   40 1    
    76   39  105 1    
    77   40   41 1    
    78   40   42 1    
    79   40  106 1    
    80   41  107 1    
    81   41  108 1    
    82   41  109 1    
    83   42   43 2    
    84   42   44 am   BACKBONE|DICT|INTERRES
    85   44   45 1    
    86   44  110 1    
    87   45   46 1    
    88   45   47 1    
    89   45  111 1    
    90   46  112 1    
    91   46  113 1    
    92   46  114 1    
    93   47   48 2    
    94   47   49 am   BACKBONE|DICT|INTERRES
    95   49   50 1    
    96   49  115 1    
    97   50   51 1    
    98   50   52 1    
    99   50  116 1    
   100   51  117 1    
   101   51  118 1    
   102   51  119 1    
   103   52   53 2    
   104   52   54 am   BACKBONE|DICT|INTERRES
   105   54   55 1    
   106   54  120 1    
   107   55   56 1    
   108   55   57 1    
   109   55  121 1    
   110   56  122 1    
   111   56  123 1    
   112   56  124 1    
   113   57   58 2    
   114   57   59 am   BACKBONE|DICT|INTERRES
   115   59   60 1    
   116   59  125 1    
   117   60   61 1    
   118   60   62 1    
   119   60  126 1    
   120   61  127 1    
   121   61  128 1    
   122   61  129 1    
   123   62   63 2    
   124   62   64 am   BACKBONE|DICT|INTERRES
   125   64   65 1    
   126   64  130 1    
   127   65   66 1    
   128   65   69 1    
   129   65  131 1    
   130   66   67 am   BACKBONE|DICT|INTERRES
   131   66   68 2    
   132   67  132 1    
   133   67  133 1    
   134   69   70 1    
   135   69  134 1    
   136   69  135 1    
   137   70   71 1    
   138   71  136 1    
   139   71  137 1    
@<TRIPOS>SUBSTRUCTURE
     1 UNK         1 GROUP             0       ****    0 ROOT    
