@<TRIPOS>MOLECULE
3R136
137   139    1
SMALL
USER_CHARGES


@<TRIPOS>ATOM
      1 CA         31.7033   26.6670   -4.1852 C.3       0 UNK        -0.1979 
      2 C          30.8795   26.9596   -2.9402 C.2       0 UNK         0.4864 
      3 O          30.2658   28.0230   -2.8495 O.2       0 UNK        -0.5359 
      4 N          30.8656   26.0259   -1.9799 N.am      1 UNK        -0.4318 
      5 CA         30.1156   26.1268   -0.7226 C.3       1 UNK         0.0824 
      6 C6         30.6459   25.1365    0.3411 C.3       12 UNK        -0.0944 
      7 S7         30.6276   23.3827   -0.1819 S.3       12 UNK        -0.2672 
      8 C8         31.6770   22.6170    1.0956 C.3       12 UNK         0.0333 
      9 C9         31.1752   22.9497    2.4915 C.ar      12 UNK        -0.0807 
     10 C10        31.8086   23.9431    3.2438 C.ar      12 UNK        -0.0894 
     11 C11        31.2971   24.3240    4.4859 C.ar      12 UNK        -0.0804 
     12 C12        30.1665   23.6774    4.9924 C.ar      12 UNK        -0.0824 
     13 C13        29.5264   22.6791    4.2495 C.ar      12 UNK        -0.0762 
     14 C14        30.0410   22.3129    3.0028 C.ar      12 UNK        -0.0782 
     15 C15        28.2601   22.0175    4.7765 C.3       12 UNK         0.0230 
     16 S16        26.7585   22.6695    3.9692 S.3       12 UNK        -0.2608 
     17 C17        26.8197   24.4306    4.4411 C.3       12 UNK        -0.0989 
     18 CA         27.0703   25.3486    3.2090 C.3       5 UNK         0.0716 
     19 N          25.8861   25.4757    2.3456 N.am      5 UNK        -0.4135 
     20 C          24.7293   26.0836    2.6694 C.2       4 UNK         0.5031 
     21 O          24.4948   26.5759    3.7738 O.2       4 UNK        -0.5229 
     22 CA         23.6362   26.1928    1.5897 C.3       4 UNK         0.0329 
     23 CB         23.6581   27.5962    0.9605 C.3       4 UNK        -0.2001 
     24 N          23.7529   25.1991    0.5262 N.am      4 UNK        -0.4303 
     25 C          23.5487   23.8806    0.6585 C.2       3 UNK         0.5044 
     26 O          23.1184   23.3515    1.6833 O.2       3 UNK        -0.5152 
     27 CA         23.9057   23.0026   -0.5593 C.3       3 UNK         0.0319 
     28 CB         22.6328   22.5720   -1.3062 C.3       3 UNK        -0.2001 
     29 N          24.8220   23.6571   -1.5044 N.am      3 UNK        -0.4354 
     30 C          26.0762   24.0317   -1.2124 C.2       2 UNK         0.4964 
     31 O          26.6171   23.7769   -0.1342 O.2       2 UNK        -0.5047 
     32 CA         26.8034   24.8585   -2.2927 C.3       2 UNK         0.0288 
     33 CB         26.0030   26.1215   -2.6839 C.3       2 UNK        -0.2113 
     34 N          28.1766   25.2235   -1.9240 N.am      2 UNK        -0.4145 
     35 C          28.5895   25.9907   -0.9006 C.2       1 UNK         0.5006 
     36 O          27.8415   26.5696   -0.1070 O.2       1 UNK        -0.5103 
     37 C          27.6117   26.7442    3.5941 C.2       5 UNK         0.5055 
     38 O          27.7029   27.0691    4.7804 O.2       5 UNK        -0.5220 
     39 N          27.9074   27.5671    2.5792 N.am      6 UNK        -0.4450 
     40 CA         28.2796   28.9695    2.7429 C.3       6 UNK         0.0367 
     41 CB         27.0058   29.8382    2.7289 C.3       6 UNK        -0.1929 
     42 C          29.2921   29.3755    1.6655 C.2       6 UNK         0.5070 
     43 O          28.9455   30.1047    0.7346 O.2       6 UNK        -0.5237 
     44 N          30.5329   28.8934    1.8082 N.am      7 UNK        -0.4739 
     45 CA         31.6812   29.3597    1.0242 C.3       7 UNK         0.0276 
     46 CB         32.8011   28.3017    1.0594 C.3       7 UNK        -0.1927 
     47 C          32.1908   30.7259    1.5220 C.2       7 UNK         0.5013 
     48 O          31.8696   31.1445    2.6391 O.2       7 UNK        -0.5193 
     49 N          33.0008   31.3849    0.6828 N.am      8 UNK        -0.4253 
     50 CA         33.6601   32.6622    0.9704 C.3       8 UNK         0.0242 
     51 CB         34.4110   33.1273   -0.2887 C.3       8 UNK        -0.2000 
     52 C          34.6220   32.5849    2.1709 C.2       8 UNK         0.4948 
     53 O          35.1319   31.5060    2.4821 O.2       8 UNK        -0.5275 
     54 N          34.8543   33.7445    2.8044 N.am      9 UNK        -0.4246 
     55 CA         35.6693   33.9423    4.0114 C.3       9 UNK         0.0261 
     56 CB         37.1606   33.6548    3.7300 C.3       9 UNK        -0.1959 
     57 C          35.1174   33.1583    5.2183 C.2       9 UNK         0.5033 
     58 O          35.8620   32.4309    5.8790 O.2       9 UNK        -0.5390 
     59 N          33.8044   33.3087    5.4588 N.am      10 UNK        -0.4215 
     60 CA         33.0200   32.6868    6.5364 C.3       10 UNK         0.0240 
     61 CB         33.3877   33.3144    7.8984 C.3       10 UNK        -0.1982 
     62 C          33.1124   31.1471    6.5427 C.2       10 UNK         0.4970 
     63 O          33.2446   30.5397    7.6069 O.2       10 UNK        -0.4916 
     64 N          33.0597   30.5520    5.3446 N.am      11 UNK        -0.4279 
     65 CA         33.2345   29.1175    5.0813 C.3       11 UNK         0.1003 
     66 C          34.6767   28.5709    5.3183 C.2       11 UNK         0.5709 
     67 N          35.6850   29.4063    5.5422 N.am      11 UNK        -0.7358 
     68 O          34.8987   27.3641    5.2685 O.2       11 UNK        -0.4999 
     69 C69        32.1168   28.2493    5.7384 C.3       12 UNK        -0.0954 
     70 S70        31.3722   27.0613    4.5757 S.3       12 UNK        -0.2268 
     71 C71        31.9369   25.4705    5.2507 C.3       12 UNK         0.0203 
     72 H72        32.4698   27.4305   -4.3154 H         1 UNK         0.0888 
     73 H73        32.1974   25.6971   -4.1293 H         1 UNK         0.0888 
     74 H74        31.0640   26.6716   -5.0676 H         1 UNK         0.0888 
     75 H75        31.3924   25.1717   -2.1015 H         1 UNK         0.3017 
     76 H76        30.2749   27.1344   -0.3373 H         1 UNK         0.0873 
     77 H77        30.0762   25.2378    1.2673 H         1 UNK         0.0745 
     78 H78        31.6730   25.3939    0.5986 H         1 UNK         0.0745 
     79 H79        32.7069   22.9526    0.9640 H         1 UNK         0.0705 
     80 H80        31.6843   21.5354    0.9532 H         1 UNK         0.0705 
     81 H81        32.6724   24.4563    2.8433 H         1 UNK         0.1334 
     82 H82        29.7668   23.9762    5.9518 H         1 UNK         0.1417 
     83 H83        29.5355   21.5603    2.4125 H         1 UNK         0.1562 
     84 H84        28.1755   22.1498    5.8563 H         1 UNK         0.0748 
     85 H85        28.3140   20.9413    4.6058 H         1 UNK         0.0748 
     86 H86        27.5920   24.5621    5.1980 H         1 UNK         0.0940 
     87 H87        25.8885   24.6906    4.9455 H         1 UNK         0.0940 
     88 H88        27.8518   24.8906    2.5994 H         1 UNK         0.0703 
     89 H89        25.9935   25.0861    1.4154 H         1 UNK         0.3081 
     90 H90        22.6717   26.0490    2.0814 H         1 UNK         0.0719 
     91 H91        24.6007   27.7940    0.4475 H         1 UNK         0.0809 
     92 H92        22.8486   27.7239    0.2416 H         1 UNK         0.0809 
     93 H93        23.5364   28.3672    1.7228 H         1 UNK         0.0809 
     94 H94        24.0869   25.5323   -0.3654 H         1 UNK         0.2990 
     95 H95        24.4011   22.1070   -0.1783 H         1 UNK         0.0690 
     96 H96        22.8631   21.8862   -2.1218 H         1 UNK         0.0788 
     97 H97        22.1004   23.4273   -1.7244 H         1 UNK         0.0788 
     98 H98        21.9437   22.0552   -0.6366 H         1 UNK         0.0788 
     99 H99        24.4447   23.8816   -2.4143 H         1 UNK         0.2993 
    100 H100       26.8864   24.2190   -3.1729 H         1 UNK         0.0949 
    101 H101       26.5491   26.7221   -3.4118 H         1 UNK         0.0767 
    102 H102       25.0456   25.8676   -3.1396 H         1 UNK         0.0767 
    103 H103       25.7961   26.7569   -1.8220 H         1 UNK         0.0767 
    104 H104       28.8994   24.7735   -2.4668 H         1 UNK         0.3013 
    105 H105       27.8275   27.2323    1.6184 H         1 UNK         0.3121 
    106 H106       28.7769   29.1139    3.7051 H         1 UNK         0.0774 
    107 H107       27.2531   30.8960    2.8263 H         1 UNK         0.0815 
    108 H108       26.4452   29.7150    1.8013 H         1 UNK         0.0815 
    109 H109       26.3427   29.5821    3.5555 H         1 UNK         0.0815 
    110 H110       30.7382   28.3250    2.6197 H         1 UNK         0.2987 
    111 H111       31.3690   29.4893   -0.0151 H         1 UNK         0.0949 
    112 H112       33.7523   28.7064    0.7106 H         1 UNK         0.0806 
    113 H113       32.9692   27.9039    2.0589 H         1 UNK         0.0806 
    114 H114       32.5678   27.4653    0.4047 H         1 UNK         0.0806 
    115 H115       33.2364   30.9522   -0.1981 H         1 UNK         0.3010 
    116 H116       32.8781   33.3881    1.2033 H         1 UNK         0.0829 
    117 H117       33.7356   33.2382   -1.1373 H         1 UNK         0.0813 
    118 H118       34.8868   34.0960   -0.1294 H         1 UNK         0.0813 
    119 H119       35.1952   32.4239   -0.5722 H         1 UNK         0.0813 
    120 H120       34.3981   34.5751    2.4512 H         1 UNK         0.3038 
    121 H121       35.5865   34.9987    4.2720 H         1 UNK         0.0769 
    122 H122       37.7755   33.9119    4.5933 H         1 UNK         0.0811 
    123 H123       37.5256   34.2405    2.8864 H         1 UNK         0.0811 
    124 H124       37.3388   32.6019    3.5096 H         1 UNK         0.0811 
    125 H125       33.2823   33.9064    4.8327 H         1 UNK         0.3204 
    126 H126       31.9743   32.9246    6.3353 H         1 UNK         0.0748 
    127 H127       32.7357   32.9437    8.6905 H         1 UNK         0.0771 
    128 H128       34.4139   33.0823    8.1859 H         1 UNK         0.0771 
    129 H129       33.2832   34.3991    7.8769 H         1 UNK         0.0771 
    130 H130       32.9239   31.1183    4.5153 H         1 UNK         0.2980 
    131 H131       33.1154   29.0610    4.0017 H         1 UNK         0.0545 
    132 H132       36.6088   29.0297    5.6789 H         1 UNK         0.3459 
    133 H133       35.5413   30.4089    5.5857 H         1 UNK         0.3459 
    134 H134       32.4761   27.7386    6.6335 H         1 UNK         0.0616 
    135 H135       31.2936   28.8782    6.0807 H         1 UNK         0.0616 
    136 H136       31.6832   25.4119    6.3102 H         1 UNK         0.0634 
    137 H137       33.0234   25.4061    5.1818 H         1 UNK         0.0634 
@<TRIPOS>BOND
     1    1    2 1    
     2    1   72 1    
     3    1   73 1    
     4    1   74 1    
     5    2    3 2    
     6    2    4 am   BACKBONE|DICT|INTERRES
     7    4    5 1    
     8    4   75 1    
     9    5    6 1    
    10    5   35 1    
    11    5   76 1    
    12    6    7 1    
    13    6   77 1    
    14    6   78 1    
    15    7    8 1    
    16    8    9 1    
    17    8   79 1    
    18    8   80 1    
    19    9   10 ar   
    20    9   14 ar   
    21   10   11 ar   
    22   10   81 1    
    23   11   12 ar   
    24   11   71 1    
    25   12   13 ar   
    26   12   82 1    
    27   13   14 ar   
    28   13   15 1    
    29   14   83 1    
    30   15   16 1    
    31   15   84 1    
    32   15   85 1    
    33   16   17 1    
    34   17   18 1    
    35   17   86 1    
    36   17   87 1    
    37   18   19 1    
    38   18   37 1    
    39   18   88 1    
    40   19   20 am   BACKBONE|DICT|INTERRES
    41   19   89 1    
    42   20   21 2    
    43   20   22 1    
    44   22   23 1    
    45   22   24 1    
    46   22   90 1    
    47   23   91 1    
    48   23   92 1    
    49   23   93 1    
    50   24   25 am   BACKBONE|DICT|INTERRES
    51   24   94 1    
    52   25   26 2    
    53   25   27 1    
    54   27   28 1    
    55   27   29 1    
    56   27   95 1    
    57   28   96 1    
    58   28   97 1    
    59   28   98 1    
    60   29   30 am   BACKBONE|DICT|INTERRES
    61   29   99 1    
    62   30   31 2    
    63   30   32 1    
    64   32   33 1    
    65   32   34 1    
    66   32  100 1    
    67   33  101 1    
    68   33  102 1    
    69   33  103 1    
    70   34   35 am   BACKBONE|DICT|INTERRES
    71   34  104 1    
    72   35   36 2    
    73   37   38 2    
    74   37   39 am   BACKBONE|DICT|INTERRES
    75   39   40 1    
    76   39  105 1    
    77   40   41 1    
    78   40   42 1    
    79   40  106 1    
    80   41  107 1    
    81   41  108 1    
    82   41  109 1    
    83   42   43 2    
    84   42   44 am   BACKBONE|DICT|INTERRES
    85   44   45 1    
    86   44  110 1    
    87   45   46 1    
    88   45   47 1    
    89   45  111 1    
    90   46  112 1    
    91   46  113 1    
    92   46  114 1    
    93   47   48 2    
    94   47   49 am   BACKBONE|DICT|INTERRES
    95   49   50 1    
    96   49  115 1    
    97   50   51 1    
    98   50   52 1    
    99   50  116 1    
   100   51  117 1    
   101   51  118 1    
   102   51  119 1    
   103   52   53 2    
   104   52   54 am   BACKBONE|DICT|INTERRES
   105   54   55 1    
   106   54  120 1    
   107   55   56 1    
   108   55   57 1    
   109   55  121 1    
   110   56  122 1    
   111   56  123 1    
   112   56  124 1    
   113   57   58 2    
   114   57   59 am   BACKBONE|DICT|INTERRES
   115   59   60 1    
   116   59  125 1    
   117   60   61 1    
   118   60   62 1    
   119   60  126 1    
   120   61  127 1    
   121   61  128 1    
   122   61  129 1    
   123   62   63 2    
   124   62   64 am   BACKBONE|DICT|INTERRES
   125   64   65 1    
   126   64  130 1    
   127   65   66 1    
   128   65   69 1    
   129   65  131 1    
   130   66   67 am   BACKBONE|DICT|INTERRES
   131   66   68 2    
   132   67  132 1    
   133   67  133 1    
   134   69   70 1    
   135   69  134 1    
   136   69  135 1    
   137   70   71 1    
   138   71  136 1    
   139   71  137 1    
@<TRIPOS>SUBSTRUCTURE
     1 UNK         1 GROUP             0       ****    0 ROOT    
