@<TRIPOS>MOLECULE
3R136
137   139    1
SMALL
USER_CHARGES


@<TRIPOS>ATOM
      1 CA         26.1602   21.8734    2.7823 C.3       0 UNK        -0.1979 
      2 C          26.9665   22.1618    1.5265 C.2       0 UNK         0.4864 
      3 O          27.1859   23.3266    1.1860 O.2       0 UNK        -0.5359 
      4 N          27.3843   21.0977    0.8262 N.am      1 UNK        -0.4318 
      5 CA         28.0757   21.1265   -0.4709 C.3       1 UNK         0.0824 
      6 C6         29.5116   21.7232   -0.3923 C.3       12 UNK        -0.0944 
      7 S7         30.5799   20.7756    0.7411 S.3       12 UNK        -0.2672 
      8 C8         32.0444   21.8618    0.8703 C.3       12 UNK         0.0333 
      9 C9         31.9314   23.0188    1.8668 C.ar      12 UNK        -0.0807 
     10 C10        32.7754   24.1235    1.7097 C.ar      12 UNK        -0.0894 
     11 C11        32.7515   25.1837    2.6216 C.ar      12 UNK        -0.0804 
     12 C12        31.8626   25.1430    3.7003 C.ar      12 UNK        -0.0824 
     13 C13        31.0279   24.0370    3.8885 C.ar      12 UNK        -0.0762 
     14 C14        31.0669   22.9820    2.9690 C.ar      12 UNK        -0.0782 
     15 C15        30.1428   23.9373    5.1259 C.3       12 UNK         0.0230 
     16 S16        28.3837   23.7430    4.7018 S.3       12 UNK        -0.2608 
     17 C17        27.6774   25.3843    5.0638 C.3       12 UNK        -0.0989 
     18 CA         28.2790   26.5473    4.2395 C.3       5 UNK         0.0716 
     19 N          28.3101   26.2714    2.7975 N.am      5 UNK        -0.4135 
     20 C          28.9371   27.0369    1.8917 C.2       4 UNK         0.5031 
     21 O          29.5297   28.0780    2.1722 O.2       4 UNK        -0.5229 
     22 CA         28.8500   26.5998    0.4252 C.3       4 UNK         0.0329 
     23 CB         30.0149   25.6693    0.0703 C.3       4 UNK        -0.2001 
     24 N          27.5923   25.9230    0.1195 N.am      4 UNK        -0.4303 
     25 C          26.4225   26.5352   -0.0999 C.2       3 UNK         0.5044 
     26 O          26.2524   27.7484    0.0295 O.2       3 UNK        -0.5152 
     27 CA         25.2639   25.6251   -0.5613 C.3       3 UNK         0.0319 
     28 CB         24.0730   26.4132   -1.1460 C.3       3 UNK        -0.2001 
     29 N          25.7147   24.5800   -1.4941 N.am      3 UNK        -0.4354 
     30 C          26.3388   24.7483   -2.6725 C.2       2 UNK         0.4964 
     31 O          26.5062   25.8448   -3.2090 O.2       2 UNK        -0.5047 
     32 CA         26.9179   23.4780   -3.3328 C.3       2 UNK         0.0288 
     33 CB         27.8186   23.7940   -4.5427 C.3       2 UNK        -0.2113 
     34 N          27.6874   22.6820   -2.3690 N.am      2 UNK        -0.4145 
     35 C          27.1586   21.7768   -1.5347 C.2       1 UNK         0.5006 
     36 O          25.9629   21.4718   -1.5588 O.2       1 UNK        -0.5103 
     37 C          27.5603   27.8691    4.5860 C.2       5 UNK         0.5055 
     38 O          27.8794   28.4803    5.6055 O.2       5 UNK        -0.5220 
     39 N          26.6367   28.3137    3.7205 N.am      6 UNK        -0.4450 
     40 CA         25.9703   29.6160    3.8084 C.3       6 UNK         0.0367 
     41 CB         24.7872   29.6414    2.8271 C.3       6 UNK        -0.1929 
     42 C          26.9151   30.8060    3.5449 C.2       6 UNK         0.5070 
     43 O          26.5840   31.9272    3.9304 O.2       6 UNK        -0.5237 
     44 N          28.0654   30.5488    2.9079 N.am      7 UNK        -0.4739 
     45 CA         29.1125   31.5231    2.6094 C.3       7 UNK         0.0276 
     46 CB         29.4329   31.4550    1.1046 C.3       7 UNK        -0.1927 
     47 C          30.3713   31.2805    3.4608 C.2       7 UNK         0.5013 
     48 O          31.4385   31.7726    3.0932 O.2       7 UNK        -0.5193 
     49 N          30.2611   30.5343    4.5719 N.am      8 UNK        -0.4253 
     50 CA         31.3662   30.2557    5.4969 C.3       8 UNK         0.0242 
     51 CB         30.8684   29.3775    6.6547 C.3       8 UNK        -0.2000 
     52 C          32.0241   31.5426    6.0296 C.2       8 UNK         0.4948 
     53 O          31.3115   32.4864    6.3763 O.2       8 UNK        -0.5275 
     54 N          33.3632   31.5415    6.0459 N.am      9 UNK        -0.4246 
     55 CA         34.3004   32.6431    6.3103 C.3       9 UNK         0.0261 
     56 CB         33.8476   33.6231    7.4123 C.3       9 UNK        -0.1959 
     57 C          34.7384   33.3672    5.0262 C.2       9 UNK         0.5033 
     58 O          35.8698   33.8537    4.9898 O.2       9 UNK        -0.5390 
     59 N          33.8959   33.3794    3.9810 N.am      10 UNK        -0.4215 
     60 CA         34.3294   33.6498    2.6053 C.3       10 UNK         0.0240 
     61 CB         33.2044   34.3141    1.7924 C.3       10 UNK        -0.1982 
     62 C          34.7983   32.3285    1.9764 C.2       10 UNK         0.4970 
     63 O          35.9254   32.2509    1.4871 O.2       10 UNK        -0.4916 
     64 N          33.9520   31.2955    2.0828 N.am      11 UNK        -0.4279 
     65 CA         34.3250   29.8846    1.9577 C.3       11 UNK         0.1003 
     66 C          35.1877   29.4558    3.1766 C.2       11 UNK         0.5709 
     67 N          36.3214   28.8085    2.9486 N.am      11 UNK        -0.7358 
     68 O          34.8127   29.6811    4.3277 O.2       11 UNK        -0.4999 
     69 C69        33.0619   28.9918    1.8091 C.3       12 UNK        -0.0954 
     70 S70        33.4298   27.3816    1.0371 S.3       12 UNK        -0.2268 
     71 C71        33.7498   26.3259    2.4876 C.3       12 UNK         0.0203 
     72 H72        26.7832   21.3838    3.5303 H         1 UNK         0.0888 
     73 H73        25.7741   22.7974    3.2120 H         1 UNK         0.0888 
     74 H74        25.3134   21.2259    2.5565 H         1 UNK         0.0888 
     75 H75        27.1491   20.1742    1.1609 H         1 UNK         0.3017 
     76 H76        28.1730   20.0854   -0.7827 H         1 UNK         0.0873 
     77 H77        29.9947   21.7105   -1.3707 H         1 UNK         0.0745 
     78 H78        29.4835   22.7613   -0.0645 H         1 UNK         0.0745 
     79 H79        32.8933   21.2462    1.1699 H         1 UNK         0.0705 
     80 H80        32.2812   22.2460   -0.1233 H         1 UNK         0.0705 
     81 H81        33.4737   24.1523    0.8841 H         1 UNK         0.1334 
     82 H82        31.8535   25.9522    4.4176 H         1 UNK         0.1417 
     83 H83        30.4307   22.1236    3.1329 H         1 UNK         0.1562 
     84 H84        30.2780   24.7966    5.7841 H         1 UNK         0.0748 
     85 H85        30.4550   23.0657    5.7027 H         1 UNK         0.0748 
     86 H86        26.6013   25.3149    4.8919 H         1 UNK         0.0940 
     87 H87        27.7977   25.5753    6.1324 H         1 UNK         0.0940 
     88 H88        29.3168   26.6780    4.5513 H         1 UNK         0.0703 
     89 H89        27.8776   25.4094    2.4913 H         1 UNK         0.3081 
     90 H90        28.9232   27.4936   -0.1985 H         1 UNK         0.0719 
     91 H91        30.0449   24.8060    0.7336 H         1 UNK         0.0809 
     92 H92        29.9494   25.3122   -0.9573 H         1 UNK         0.0809 
     93 H93        30.9665   26.1879    0.1732 H         1 UNK         0.0809 
     94 H94        27.5976   24.9067    0.1353 H         1 UNK         0.2990 
     95 H95        24.9125   25.1067    0.3321 H         1 UNK         0.0690 
     96 H96        23.2661   25.7460   -1.4488 H         1 UNK         0.0788 
     97 H97        24.3651   27.0034   -2.0151 H         1 UNK         0.0788 
     98 H98        23.6624   27.1039   -0.4084 H         1 UNK         0.0788 
     99 H99        25.6370   23.6298   -1.1506 H         1 UNK         0.2993 
    100 H100       26.0700   22.8935   -3.6970 H         1 UNK         0.0949 
    101 H101       28.1944   22.8815   -5.0060 H         1 UNK         0.0767 
    102 H102       27.2672   24.3396   -5.3098 H         1 UNK         0.0767 
    103 H103       28.6766   24.4052   -4.2594 H         1 UNK         0.0767 
    104 H104       28.6673   22.9087   -2.2828 H         1 UNK         0.3013 
    105 H105       26.4450   27.7630    2.8957 H         1 UNK         0.3121 
    106 H106       25.5786   29.7284    4.8217 H         1 UNK         0.0774 
    107 H107       25.1186   29.5393    1.7929 H         1 UNK         0.0815 
    108 H108       24.2399   30.5822    2.9011 H         1 UNK         0.0815 
    109 H109       24.0789   28.8392    3.0349 H         1 UNK         0.0815 
    110 H110       28.2903   29.5910    2.6548 H         1 UNK         0.2987 
    111 H111       28.7709   32.5345    2.8387 H         1 UNK         0.0949 
    112 H112       29.8496   30.4862    0.8262 H         1 UNK         0.0806 
    113 H113       28.5405   31.6219    0.5015 H         1 UNK         0.0806 
    114 H114       30.1601   32.2168    0.8208 H         1 UNK         0.0806 
    115 H115       29.3531   30.1644    4.8195 H         1 UNK         0.3010 
    116 H116       32.1135   29.6878    4.9404 H         1 UNK         0.0829 
    117 H117       30.5159   28.4109    6.2950 H         1 UNK         0.0813 
    118 H118       31.6673   29.1817    7.3711 H         1 UNK         0.0813 
    119 H119       30.0507   29.8535    7.1975 H         1 UNK         0.0813 
    120 H120       33.8238   30.7127    5.6750 H         1 UNK         0.3038 
    121 H121       35.1957   32.1461    6.6875 H         1 UNK         0.0769 
    122 H122       33.0293   34.2626    7.0805 H         1 UNK         0.0811 
    123 H123       34.6678   34.2823    7.6992 H         1 UNK         0.0811 
    124 H124       33.5257   33.0955    8.3101 H         1 UNK         0.0811 
    125 H125       32.9820   32.9541    4.0880 H         1 UNK         0.3204 
    126 H126       35.1760   34.3399    2.6131 H         1 UNK         0.0748 
    127 H127       33.5534   34.5682    0.7908 H         1 UNK         0.0771 
    128 H128       32.3336   33.6711    1.6740 H         1 UNK         0.0771 
    129 H129       32.8727   35.2396    2.2633 H         1 UNK         0.0771 
    130 H130       33.0274   31.4675    2.4762 H         1 UNK         0.2980 
    131 H131       34.9228   29.7916    1.0486 H         1 UNK         0.0545 
    132 H132       36.8841   28.5173    3.7321 H         1 UNK         0.3459 
    133 H133       36.6300   28.6133    2.0092 H         1 UNK         0.3459 
    134 H134       32.3388   29.4831    1.1559 H         1 UNK         0.0616 
    135 H135       32.5417   28.8483    2.7574 H         1 UNK         0.0616 
    136 H136       33.7629   26.9241    3.3992 H         1 UNK         0.0634 
    137 H137       34.7533   25.9088    2.3931 H         1 UNK         0.0634 
@<TRIPOS>BOND
     1    1    2 1    
     2    1   72 1    
     3    1   73 1    
     4    1   74 1    
     5    2    3 2    
     6    2    4 am   BACKBONE|DICT|INTERRES
     7    4    5 1    
     8    4   75 1    
     9    5    6 1    
    10    5   35 1    
    11    5   76 1    
    12    6    7 1    
    13    6   77 1    
    14    6   78 1    
    15    7    8 1    
    16    8    9 1    
    17    8   79 1    
    18    8   80 1    
    19    9   10 ar   
    20    9   14 ar   
    21   10   11 ar   
    22   10   81 1    
    23   11   12 ar   
    24   11   71 1    
    25   12   13 ar   
    26   12   82 1    
    27   13   14 ar   
    28   13   15 1    
    29   14   83 1    
    30   15   16 1    
    31   15   84 1    
    32   15   85 1    
    33   16   17 1    
    34   17   18 1    
    35   17   86 1    
    36   17   87 1    
    37   18   19 1    
    38   18   37 1    
    39   18   88 1    
    40   19   20 am   BACKBONE|DICT|INTERRES
    41   19   89 1    
    42   20   21 2    
    43   20   22 1    
    44   22   23 1    
    45   22   24 1    
    46   22   90 1    
    47   23   91 1    
    48   23   92 1    
    49   23   93 1    
    50   24   25 am   BACKBONE|DICT|INTERRES
    51   24   94 1    
    52   25   26 2    
    53   25   27 1    
    54   27   28 1    
    55   27   29 1    
    56   27   95 1    
    57   28   96 1    
    58   28   97 1    
    59   28   98 1    
    60   29   30 am   BACKBONE|DICT|INTERRES
    61   29   99 1    
    62   30   31 2    
    63   30   32 1    
    64   32   33 1    
    65   32   34 1    
    66   32  100 1    
    67   33  101 1    
    68   33  102 1    
    69   33  103 1    
    70   34   35 am   BACKBONE|DICT|INTERRES
    71   34  104 1    
    72   35   36 2    
    73   37   38 2    
    74   37   39 am   BACKBONE|DICT|INTERRES
    75   39   40 1    
    76   39  105 1    
    77   40   41 1    
    78   40   42 1    
    79   40  106 1    
    80   41  107 1    
    81   41  108 1    
    82   41  109 1    
    83   42   43 2    
    84   42   44 am   BACKBONE|DICT|INTERRES
    85   44   45 1    
    86   44  110 1    
    87   45   46 1    
    88   45   47 1    
    89   45  111 1    
    90   46  112 1    
    91   46  113 1    
    92   46  114 1    
    93   47   48 2    
    94   47   49 am   BACKBONE|DICT|INTERRES
    95   49   50 1    
    96   49  115 1    
    97   50   51 1    
    98   50   52 1    
    99   50  116 1    
   100   51  117 1    
   101   51  118 1    
   102   51  119 1    
   103   52   53 2    
   104   52   54 am   BACKBONE|DICT|INTERRES
   105   54   55 1    
   106   54  120 1    
   107   55   56 1    
   108   55   57 1    
   109   55  121 1    
   110   56  122 1    
   111   56  123 1    
   112   56  124 1    
   113   57   58 2    
   114   57   59 am   BACKBONE|DICT|INTERRES
   115   59   60 1    
   116   59  125 1    
   117   60   61 1    
   118   60   62 1    
   119   60  126 1    
   120   61  127 1    
   121   61  128 1    
   122   61  129 1    
   123   62   63 2    
   124   62   64 am   BACKBONE|DICT|INTERRES
   125   64   65 1    
   126   64  130 1    
   127   65   66 1    
   128   65   69 1    
   129   65  131 1    
   130   66   67 am   BACKBONE|DICT|INTERRES
   131   66   68 2    
   132   67  132 1    
   133   67  133 1    
   134   69   70 1    
   135   69  134 1    
   136   69  135 1    
   137   70   71 1    
   138   71  136 1    
   139   71  137 1    
@<TRIPOS>SUBSTRUCTURE
     1 UNK         1 GROUP             0       ****    0 ROOT    
