@<TRIPOS>MOLECULE
3R136
137   139    1
SMALL
USER_CHARGES


@<TRIPOS>ATOM
      1 CA         25.6908   22.8608    1.3142 C.3       0 UNK        -0.1979 
      2 C          26.8161   22.4941    0.3586 C.2       0 UNK         0.4864 
      3 O          26.5506   22.0024   -0.7388 O.2       0 UNK        -0.5359 
      4 N          28.0723   22.7223    0.7690 N.am      1 UNK        -0.4318 
      5 CA         29.2794   22.4054   -0.0129 C.3       1 UNK         0.0824 
      6 C6         30.5636   22.4243    0.8532 C.3       12 UNK        -0.0944 
      7 S7         30.4781   21.2105    2.2143 S.3       12 UNK        -0.2672 
      8 C8         31.8289   21.7732    3.3104 C.3       12 UNK         0.0333 
      9 C9         31.6336   23.1463    3.9585 C.ar      12 UNK        -0.0807 
     10 C10        32.7570   23.8248    4.4369 C.ar      12 UNK        -0.0894 
     11 C11        32.6337   25.0826    5.0312 C.ar      12 UNK        -0.0804 
     12 C12        31.3718   25.6748    5.1344 C.ar      12 UNK        -0.0824 
     13 C13        30.2302   25.0161    4.6654 C.ar      12 UNK        -0.0762 
     14 C14        30.3730   23.7394    4.1028 C.ar      12 UNK        -0.0782 
     15 C15        28.8810   25.7353    4.7691 C.3       12 UNK         0.0230 
     16 S16        27.4725   24.8815    3.9768 S.3       12 UNK        -0.2608 
     17 C17        26.3246   26.2560    3.6365 C.3       12 UNK        -0.0989 
     18 CA         26.5667   26.8547    2.2171 C.3       5 UNK         0.0716 
     19 N          25.3737   26.8533    1.3653 N.am      5 UNK        -0.4135 
     20 C          24.2683   27.5952    1.5076 C.2       4 UNK         0.5031 
     21 O          24.0661   28.3433    2.4655 O.2       4 UNK        -0.5229 
     22 CA         23.2290   27.4977    0.3673 C.3       4 UNK         0.0329 
     23 CB         22.1423   28.5852    0.4637 C.3       4 UNK        -0.2001 
     24 N          23.8563   27.5722   -0.9586 N.am      4 UNK        -0.4303 
     25 C          24.4541   26.5550   -1.5939 C.2       3 UNK         0.5044 
     26 O          24.4815   25.4088   -1.1418 O.2       3 UNK        -0.5152 
     27 CA         25.1991   26.8654   -2.9131 C.3       3 UNK         0.0319 
     28 CB         25.3664   28.3756   -3.1975 C.3       3 UNK        -0.2001 
     29 N          26.5079   26.1959   -2.9860 N.am      3 UNK        -0.4354 
     30 C          27.4861   26.2618   -2.0710 C.2       2 UNK         0.4964 
     31 O          27.4151   26.9148   -1.0282 O.2       2 UNK        -0.5047 
     32 CA         28.7523   25.4450   -2.3279 C.3       2 UNK         0.0288 
     33 CB         29.9956   26.3497   -2.4116 C.3       2 UNK        -0.2113 
     34 N          28.8765   24.5170   -1.2113 N.am      2 UNK        -0.4145 
     35 C          29.4405   23.3045   -1.2592 C.2       1 UNK         0.5006 
     36 O          30.0484   22.8731   -2.2407 O.2       1 UNK        -0.5103 
     37 C          27.2770   28.2288    2.2064 C.2       5 UNK         0.5055 
     38 O          27.6717   28.7497    3.2508 O.2       5 UNK        -0.5220 
     39 N          27.4642   28.7777    0.9976 N.am      6 UNK        -0.4450 
     40 CA         28.1827   30.0267    0.7273 C.3       6 UNK         0.0367 
     41 CB         27.9847   30.4162   -0.7456 C.3       6 UNK        -0.1929 
     42 C          29.6807   29.9492    1.0691 C.2       6 UNK         0.5070 
     43 O          30.2967   30.9841    1.3221 O.2       6 UNK        -0.5237 
     44 N          30.2262   28.7243    1.1297 N.am      7 UNK        -0.4739 
     45 CA         31.5818   28.4030    1.5861 C.3       7 UNK         0.0276 
     46 CB         31.7794   26.8789    1.5354 C.3       7 UNK        -0.1927 
     47 C          31.9122   28.9459    2.9896 C.2       7 UNK         0.5013 
     48 O          33.0653   29.2978    3.2366 O.2       7 UNK        -0.5193 
     49 N          30.8920   29.0875    3.8520 N.am      8 UNK        -0.4253 
     50 CA         30.9854   29.6857    5.1886 C.3       8 UNK         0.0242 
     51 CB         29.6394   29.5187    5.9125 C.3       8 UNK        -0.2000 
     52 C          31.4275   31.1641    5.2068 C.2       8 UNK         0.4948 
     53 O          31.8101   31.6575    6.2681 O.2       8 UNK        -0.5275 
     54 N          31.3866   31.8508    4.0544 N.am      9 UNK        -0.4246 
     55 CA         31.9750   33.1799    3.8775 C.3       9 UNK         0.0261 
     56 CB         31.3532   33.8496    2.6413 C.3       9 UNK        -0.1959 
     57 C          33.5117   33.1445    3.7524 C.2       9 UNK         0.5033 
     58 O          34.1409   34.1868    3.9427 O.2       9 UNK        -0.5390 
     59 N          34.0872   31.9787    3.4221 N.am      10 UNK        -0.4215 
     60 CA         35.5219   31.7705    3.2403 C.3       10 UNK         0.0240 
     61 CB         35.7761   31.0824    1.8860 C.3       10 UNK        -0.1982 
     62 C          36.0961   30.9547    4.4057 C.2       10 UNK         0.4970 
     63 O          36.9262   31.4784    5.1502 O.2       10 UNK        -0.4916 
     64 N          35.6624   29.6950    4.5374 N.am      11 UNK        -0.4279 
     65 CA         36.0977   28.7703    5.5945 C.3       11 UNK         0.1003 
     66 C          35.2522   28.8960    6.8899 C.2       11 UNK         0.5709 
     67 N          35.7586   28.3933    8.0083 N.am      11 UNK        -0.7358 
     68 O          34.1412   29.4187    6.8967 O.2       11 UNK        -0.4999 
     69 C69        36.2062   27.3048    5.0866 C.3       12 UNK        -0.0954 
     70 S70        34.7338   26.6657    4.2202 S.3       12 UNK        -0.2268 
     71 C71        33.8688   25.7950    5.5583 C.3       12 UNK         0.0203 
     72 H72        25.2940   23.8456    1.0709 H         1 UNK         0.0888 
     73 H73        24.8783   22.1389    1.2361 H         1 UNK         0.0888 
     74 H74        26.0287   22.8684    2.3496 H         1 UNK         0.0888 
     75 H75        28.2327   23.0969    1.6930 H         1 UNK         0.3017 
     76 H76        29.1562   21.3879   -0.3912 H         1 UNK         0.0873 
     77 H77        30.7363   23.4227    1.2591 H         1 UNK         0.0745 
     78 H78        31.4402   22.1827    0.2486 H         1 UNK         0.0745 
     79 H79        31.9538   21.0358    4.1043 H         1 UNK         0.0705 
     80 H80        32.7561   21.7670    2.7350 H         1 UNK         0.0705 
     81 H81        33.7362   23.3743    4.3454 H         1 UNK         0.1334 
     82 H82        31.2802   26.6566    5.5779 H         1 UNK         0.1417 
     83 H83        29.5039   23.2013    3.7608 H         1 UNK         0.1562 
     84 H84        28.9921   26.7170    4.3102 H         1 UNK         0.0748 
     85 H85        28.6414   25.9052    5.8196 H         1 UNK         0.0748 
     86 H86        26.3739   26.9967    4.4366 H         1 UNK         0.0940 
     87 H87        25.3181   25.8409    3.7067 H         1 UNK         0.0940 
     88 H88        27.2545   26.1979    1.6823 H         1 UNK         0.0703 
     89 H89        25.4322   26.2858    0.5272 H         1 UNK         0.3081 
     90 H90        22.7357   26.5288    0.4710 H         1 UNK         0.0719 
     91 H91        21.6053   28.5203    1.4111 H         1 UNK         0.0809 
     92 H92        22.5671   29.5876    0.3972 H         1 UNK         0.0809 
     93 H93        21.4033   28.4796   -0.3307 H         1 UNK         0.0809 
     94 H94        23.9107   28.4899   -1.3766 H         1 UNK         0.2990 
     95 H95        24.5890   26.4405   -3.7113 H         1 UNK         0.0690 
     96 H96        25.9034   28.5390   -4.1321 H         1 UNK         0.0788 
     97 H97        25.9248   28.8793   -2.4085 H         1 UNK         0.0788 
     98 H98        24.4018   28.8742   -3.3000 H         1 UNK         0.0788 
     99 H99        26.6410   25.5943   -3.7869 H         1 UNK         0.2993 
    100 H100       28.6440   24.8885   -3.2616 H         1 UNK         0.0949 
    101 H101       30.1382   26.9289   -1.4985 H         1 UNK         0.0767 
    102 H102       30.9001   25.7653   -2.5806 H         1 UNK         0.0767 
    103 H103       29.9064   27.0576   -3.2365 H         1 UNK         0.0767 
    104 H104       28.3704   24.7851   -0.3791 H         1 UNK         0.3013 
    105 H105       27.2103   28.2193    0.1833 H         1 UNK         0.3121 
    106 H106       27.7468   30.8074    1.3540 H         1 UNK         0.0774 
    107 H107       28.3538   29.6432   -1.4212 H         1 UNK         0.0815 
    108 H108       26.9321   30.5874   -0.9698 H         1 UNK         0.0815 
    109 H109       28.5177   31.3385   -0.9812 H         1 UNK         0.0815 
    110 H110       29.6372   27.9437    0.8807 H         1 UNK         0.2987 
    111 H111       32.2819   28.8673    0.8885 H         1 UNK         0.0949 
    112 H112       31.6629   26.4939    0.5224 H         1 UNK         0.0806 
    113 H113       32.7804   26.6032    1.8697 H         1 UNK         0.0806 
    114 H114       31.0697   26.3563    2.1772 H         1 UNK         0.0806 
    115 H115       29.9626   28.8364    3.5384 H         1 UNK         0.3010 
    116 H116       31.7422   29.1253    5.7404 H         1 UNK         0.0829 
    117 H117       28.8351   30.0380    5.3899 H         1 UNK         0.0813 
    118 H118       29.6861   29.9254    6.9237 H         1 UNK         0.0813 
    119 H119       29.3595   28.4701    6.0029 H         1 UNK         0.0813 
    120 H120       31.0281   31.4000    3.2180 H         1 UNK         0.3038 
    121 H121       31.7291   33.7889    4.7502 H         1 UNK         0.0769 
    122 H122       30.2666   33.8950    2.7166 H         1 UNK         0.0811 
    123 H123       31.6041   33.3153    1.7242 H         1 UNK         0.0811 
    124 H124       31.7140   34.8729    2.5298 H         1 UNK         0.0811 
    125 H125       33.5087   31.1457    3.3449 H         1 UNK         0.3204 
    126 H126       36.0460   32.7284    3.2226 H         1 UNK         0.0748 
    127 H127       35.2510   30.1305    1.7993 H         1 UNK         0.0771 
    128 H128       35.4513   31.7145    1.0594 H         1 UNK         0.0771 
    129 H129       36.8391   30.8839    1.7427 H         1 UNK         0.0771 
    130 H130       34.8992   29.3654    3.9535 H         1 UNK         0.2980 
    131 H131       37.1102   29.0595    5.8834 H         1 UNK         0.0545 
    132 H132       36.6680   27.9589    8.0233 H         1 UNK         0.3459 
    133 H133       35.2217   28.4598    8.8587 H         1 UNK         0.3459 
    134 H134       36.4777   26.6255    5.8964 H         1 UNK         0.0616 
    135 H135       37.0330   27.2446    4.3775 H         1 UNK         0.0616 
    136 H136       33.5913   26.5064    6.3370 H         1 UNK         0.0634 
    137 H137       34.5435   25.0729    6.0205 H         1 UNK         0.0634 
@<TRIPOS>BOND
     1    1    2 1    
     2    1   72 1    
     3    1   73 1    
     4    1   74 1    
     5    2    3 2    
     6    2    4 am   BACKBONE|DICT|INTERRES
     7    4    5 1    
     8    4   75 1    
     9    5    6 1    
    10    5   35 1    
    11    5   76 1    
    12    6    7 1    
    13    6   77 1    
    14    6   78 1    
    15    7    8 1    
    16    8    9 1    
    17    8   79 1    
    18    8   80 1    
    19    9   10 ar   
    20    9   14 ar   
    21   10   11 ar   
    22   10   81 1    
    23   11   12 ar   
    24   11   71 1    
    25   12   13 ar   
    26   12   82 1    
    27   13   14 ar   
    28   13   15 1    
    29   14   83 1    
    30   15   16 1    
    31   15   84 1    
    32   15   85 1    
    33   16   17 1    
    34   17   18 1    
    35   17   86 1    
    36   17   87 1    
    37   18   19 1    
    38   18   37 1    
    39   18   88 1    
    40   19   20 am   BACKBONE|DICT|INTERRES
    41   19   89 1    
    42   20   21 2    
    43   20   22 1    
    44   22   23 1    
    45   22   24 1    
    46   22   90 1    
    47   23   91 1    
    48   23   92 1    
    49   23   93 1    
    50   24   25 am   BACKBONE|DICT|INTERRES
    51   24   94 1    
    52   25   26 2    
    53   25   27 1    
    54   27   28 1    
    55   27   29 1    
    56   27   95 1    
    57   28   96 1    
    58   28   97 1    
    59   28   98 1    
    60   29   30 am   BACKBONE|DICT|INTERRES
    61   29   99 1    
    62   30   31 2    
    63   30   32 1    
    64   32   33 1    
    65   32   34 1    
    66   32  100 1    
    67   33  101 1    
    68   33  102 1    
    69   33  103 1    
    70   34   35 am   BACKBONE|DICT|INTERRES
    71   34  104 1    
    72   35   36 2    
    73   37   38 2    
    74   37   39 am   BACKBONE|DICT|INTERRES
    75   39   40 1    
    76   39  105 1    
    77   40   41 1    
    78   40   42 1    
    79   40  106 1    
    80   41  107 1    
    81   41  108 1    
    82   41  109 1    
    83   42   43 2    
    84   42   44 am   BACKBONE|DICT|INTERRES
    85   44   45 1    
    86   44  110 1    
    87   45   46 1    
    88   45   47 1    
    89   45  111 1    
    90   46  112 1    
    91   46  113 1    
    92   46  114 1    
    93   47   48 2    
    94   47   49 am   BACKBONE|DICT|INTERRES
    95   49   50 1    
    96   49  115 1    
    97   50   51 1    
    98   50   52 1    
    99   50  116 1    
   100   51  117 1    
   101   51  118 1    
   102   51  119 1    
   103   52   53 2    
   104   52   54 am   BACKBONE|DICT|INTERRES
   105   54   55 1    
   106   54  120 1    
   107   55   56 1    
   108   55   57 1    
   109   55  121 1    
   110   56  122 1    
   111   56  123 1    
   112   56  124 1    
   113   57   58 2    
   114   57   59 am   BACKBONE|DICT|INTERRES
   115   59   60 1    
   116   59  125 1    
   117   60   61 1    
   118   60   62 1    
   119   60  126 1    
   120   61  127 1    
   121   61  128 1    
   122   61  129 1    
   123   62   63 2    
   124   62   64 am   BACKBONE|DICT|INTERRES
   125   64   65 1    
   126   64  130 1    
   127   65   66 1    
   128   65   69 1    
   129   65  131 1    
   130   66   67 am   BACKBONE|DICT|INTERRES
   131   66   68 2    
   132   67  132 1    
   133   67  133 1    
   134   69   70 1    
   135   69  134 1    
   136   69  135 1    
   137   70   71 1    
   138   71  136 1    
   139   71  137 1    
@<TRIPOS>SUBSTRUCTURE
     1 UNK         1 GROUP             0       ****    0 ROOT    
