@<TRIPOS>MOLECULE
3R136
137   139    1
SMALL
USER_CHARGES


@<TRIPOS>ATOM
      1 CA         29.4726   24.6037   -3.8144 C.3       0 UNK        -0.1979 
      2 C          30.6281   24.2887   -2.8647 C.2       0 UNK         0.4864 
      3 O          31.7626   24.1707   -3.3251 O.2       0 UNK        -0.5359 
      4 N          30.4112   24.1572   -1.5471 N.am      1 UNK        -0.4318 
      5 CA         29.1276   24.2019   -0.8337 C.3       1 UNK         0.0824 
      6 C6         29.3200   24.1940    0.7025 C.3       12 UNK        -0.0944 
      7 S7         30.3426   25.5867    1.2754 S.3       12 UNK        -0.2672 
      8 C8         30.9306   24.9746    2.8864 C.3       12 UNK         0.0333 
      9 C9         30.4353   25.8646    4.0134 C.ar      12 UNK        -0.0807 
     10 C10        31.3082   26.7558    4.6455 C.ar      12 UNK        -0.0894 
     11 C11        30.8471   27.5923    5.6658 C.ar      12 UNK        -0.0804 
     12 C12        29.5019   27.5466    6.0391 C.ar      12 UNK        -0.0824 
     13 C13        28.6178   26.6661    5.4088 C.ar      12 UNK        -0.0762 
     14 C14        29.0962   25.8098    4.4119 C.ar      12 UNK        -0.0782 
     15 C15        27.1418   26.6777    5.7902 C.3       12 UNK         0.0230 
     16 S16        26.0117   26.9018    4.3704 S.3       12 UNK        -0.2608 
     17 C17        26.7948   28.2291    3.3839 C.3       12 UNK        -0.0989 
     18 CA         27.0017   27.7626    1.9193 C.3       5 UNK         0.0716 
     19 N          25.7179   27.6501    1.2227 N.am      5 UNK        -0.4135 
     20 C          25.4408   26.8242    0.2096 C.2       4 UNK         0.5031 
     21 O          26.2327   25.9909   -0.2469 O.2       4 UNK        -0.5229 
     22 CA         24.0715   27.0210   -0.4538 C.3       4 UNK         0.0329 
     23 CB         24.2245   27.8724   -1.7250 C.3       4 UNK        -0.2001 
     24 N          23.5153   25.7226   -0.8154 N.am      4 UNK        -0.4303 
     25 C          22.6181   25.0362   -0.0943 C.2       3 UNK         0.5044 
     26 O          22.0421   25.4827    0.8985 O.2       3 UNK        -0.5152 
     27 CA         22.3327   23.5908   -0.5491 C.3       3 UNK         0.0319 
     28 CB         21.1161   23.5477   -1.4876 C.3       3 UNK        -0.2001 
     29 N          23.4867   22.9796   -1.2175 N.am      3 UNK        -0.4354 
     30 C          24.6409   22.6846   -0.6028 C.2       2 UNK         0.4964 
     31 O          24.7976   22.7410    0.6180 O.2       2 UNK        -0.5047 
     32 CA         25.8403   22.3253   -1.4871 C.3       2 UNK         0.0288 
     33 CB         25.5523   22.3129   -3.0056 C.3       2 UNK        -0.2113 
     34 N          26.8932   23.2916   -1.1890 N.am      2 UNK        -0.4145 
     35 C          28.2025   23.0400   -1.2455 C.2       1 UNK         0.5006 
     36 O          28.6830   21.9545   -1.5833 O.2       1 UNK        -0.5103 
     37 C          27.9169   28.7036    1.1108 C.2       5 UNK         0.5055 
     38 O          28.1704   29.8347    1.5277 O.2       5 UNK        -0.5220 
     39 N          28.3320   28.2349   -0.0739 N.am      6 UNK        -0.4450 
     40 CA         29.0763   28.9979   -1.0786 C.3       6 UNK         0.0367 
     41 CB         29.1932   28.1620   -2.3628 C.3       6 UNK        -0.1929 
     42 C          30.4675   29.4612   -0.6160 C.2       6 UNK         0.5070 
     43 O          30.8600   30.5880   -0.9181 O.2       6 UNK        -0.5237 
     44 N          31.1844   28.5999    0.1160 N.am      7 UNK        -0.4739 
     45 CA         32.5356   28.8539    0.6213 C.3       7 UNK         0.0276 
     46 CB         33.3670   27.5604    0.5254 C.3       7 UNK        -0.1927 
     47 C          32.5030   29.4239    2.0495 C.2       7 UNK         0.5013 
     48 O          33.2800   28.9868    2.8984 O.2       7 UNK        -0.5193 
     49 N          31.6235   30.4069    2.2942 N.am      8 UNK        -0.4253 
     50 CA         31.3986   31.0566    3.5933 C.3       8 UNK         0.0242 
     51 CB         30.3334   32.1526    3.4366 C.3       8 UNK        -0.2000 
     52 C          32.6643   31.6321    4.2597 C.2       8 UNK         0.4948 
     53 O          32.7513   31.6439    5.4877 O.2       8 UNK        -0.5275 
     54 N          33.6367   32.0596    3.4425 N.am      9 UNK        -0.4246 
     55 CA         34.9487   32.5426    3.8759 C.3       9 UNK         0.0261 
     56 CB         35.6696   33.1813    2.6778 C.3       9 UNK        -0.1959 
     57 C          35.8393   31.4634    4.5219 C.2       9 UNK         0.5033 
     58 O          36.7248   31.8208    5.3007 O.2       9 UNK        -0.5390 
     59 N          35.6029   30.1750    4.2203 N.am      10 UNK        -0.4215 
     60 CA         36.3829   29.0468    4.7483 C.3       10 UNK         0.0240 
     61 CB         36.0111   27.7597    3.9939 C.3       10 UNK        -0.1982 
     62 C          36.2241   28.8406    6.2653 C.2       10 UNK         0.4970 
     63 O          37.1072   28.2477    6.8861 O.2       10 UNK        -0.4916 
     64 N          35.1198   29.3419    6.8302 N.am      11 UNK        -0.4279 
     65 CA         34.8454   29.3602    8.2723 C.3       11 UNK         0.1003 
     66 C          35.5705   30.5111    9.0321 C.2       11 UNK         0.5709 
     67 N          36.2712   31.4254    8.3681 N.am      11 UNK        -0.7358 
     68 O          35.5076   30.5685   10.2580 O.2       11 UNK        -0.4999 
     69 C69        33.3203   29.3655    8.5543 C.3       12 UNK        -0.0954 
     70 S70        32.4687   27.8947    7.8864 S.3       12 UNK        -0.2268 
     71 C71        31.7877   28.5728    6.3448 C.3       12 UNK         0.0203 
     72 H72        28.9771   23.6834   -4.1228 H         1 UNK         0.0888 
     73 H73        28.7316   25.2651   -3.3697 H         1 UNK         0.0888 
     74 H74        29.8473   25.0967   -4.7112 H         1 UNK         0.0888 
     75 H75        31.2049   23.9549   -0.9574 H         1 UNK         0.3017 
     76 H76        28.6371   25.1386   -1.1010 H         1 UNK         0.0873 
     77 H77        29.7815   23.2558    1.0175 H         1 UNK         0.0745 
     78 H78        28.3577   24.2558    1.2156 H         1 UNK         0.0745 
     79 H79        30.5991   23.9507    3.0629 H         1 UNK         0.0705 
     80 H80        32.0211   24.9429    2.8720 H         1 UNK         0.0705 
     81 H81        32.3440   26.8078    4.3377 H         1 UNK         0.1334 
     82 H82        29.1433   28.2092    6.8152 H         1 UNK         0.1417 
     83 H83        28.4166   25.1295    3.9168 H         1 UNK         0.1562 
     84 H84        26.9385   27.4707    6.5116 H         1 UNK         0.0748 
     85 H85        26.8975   25.7399    6.2907 H         1 UNK         0.0748 
     86 H86        27.7435   28.5252    3.8326 H         1 UNK         0.0940 
     87 H87        26.1647   29.1193    3.4255 H         1 UNK         0.0940 
     88 H88        27.4902   26.7856    1.9399 H         1 UNK         0.0703 
     89 H89        25.0135   28.3159    1.5049 H         1 UNK         0.3081 
     90 H90        23.4015   27.5395    0.2356 H         1 UNK         0.0719 
     91 H91        23.2638   28.0236   -2.2176 H         1 UNK         0.0809 
     92 H92        24.9008   27.4096   -2.4453 H         1 UNK         0.0809 
     93 H93        24.6260   28.8591   -1.4895 H         1 UNK         0.0809 
     94 H94        23.9623   25.2521   -1.5878 H         1 UNK         0.2990 
     95 H95        22.1011   23.0019    0.3412 H         1 UNK         0.0690 
     96 H96        20.8654   22.5238   -1.7658 H         1 UNK         0.0788 
     97 H97        21.2904   24.1129   -2.4041 H         1 UNK         0.0788 
     98 H98        20.2364   23.9749   -1.0039 H         1 UNK         0.0788 
     99 H99        23.4360   22.8828   -2.2217 H         1 UNK         0.2993 
    100 H100       26.1615   21.3268   -1.1820 H         1 UNK         0.0949 
    101 H101       26.4383   22.0131   -3.5660 H         1 UNK         0.0767 
    102 H102       24.7670   21.5986   -3.2566 H         1 UNK         0.0767 
    103 H103       25.2517   23.2943   -3.3748 H         1 UNK         0.0767 
    104 H104       26.5798   24.1930   -0.8308 H         1 UNK         0.3013 
    105 H105       28.0219   27.3086   -0.3380 H         1 UNK         0.3121 
    106 H106       28.4923   29.8922   -1.3062 H         1 UNK         0.0774 
    107 H107       29.6880   28.7294   -3.1523 H         1 UNK         0.0815 
    108 H108       29.7787   27.2571   -2.1991 H         1 UNK         0.0815 
    109 H109       28.2132   27.8700   -2.7410 H         1 UNK         0.0815 
    110 H110       30.7695   27.7114    0.3692 H         1 UNK         0.2987 
    111 H111       33.0269   29.6013   -0.0056 H         1 UNK         0.0949 
    112 H112       33.0127   26.7978    1.2187 H         1 UNK         0.0806 
    113 H113       33.3398   27.1410   -0.4803 H         1 UNK         0.0806 
    114 H114       34.4129   27.7524    0.7679 H         1 UNK         0.0806 
    115 H115       31.0206   30.6938    1.5345 H         1 UNK         0.3010 
    116 H116       30.9971   30.2928    4.2596 H         1 UNK         0.0829 
    117 H117       29.3890   31.7403    3.0809 H         1 UNK         0.0813 
    118 H118       30.1309   32.6405    4.3913 H         1 UNK         0.0813 
    119 H119       30.6487   32.9255    2.7347 H         1 UNK         0.0813 
    120 H120       33.4745   32.0119    2.4472 H         1 UNK         0.3038 
    121 H121       34.7847   33.3173    4.6281 H         1 UNK         0.0769 
    122 H122       36.6405   33.5811    2.9746 H         1 UNK         0.0811 
    123 H123       35.0949   34.0096    2.2628 H         1 UNK         0.0811 
    124 H124       35.8455   32.4590    1.8796 H         1 UNK         0.0811 
    125 H125       34.8169   29.9346    3.6206 H         1 UNK         0.3204 
    126 H126       37.4371   29.2585    4.5578 H         1 UNK         0.0748 
    127 H127       36.6582   26.9336    4.2914 H         1 UNK         0.0771 
    128 H128       34.9840   27.4548    4.1982 H         1 UNK         0.0771 
    129 H129       36.1169   27.8828    2.9159 H         1 UNK         0.0771 
    130 H130       34.4609   29.8397    6.2492 H         1 UNK         0.2980 
    131 H131       35.2452   28.4379    8.6980 H         1 UNK         0.0545 
    132 H132       36.3520   31.3980    7.3593 H         1 UNK         0.3459 
    133 H133       36.7349   32.1549    8.8856 H         1 UNK         0.3459 
    134 H134       32.8600   30.2732    8.1593 H         1 UNK         0.0616 
    135 H135       33.1331   29.3772    9.6295 H         1 UNK         0.0616 
    136 H136       31.2548   29.4996    6.5624 H         1 UNK         0.0634 
    137 H137       32.6057   28.8312    5.6718 H         1 UNK         0.0634 
@<TRIPOS>BOND
     1    1    2 1    
     2    1   72 1    
     3    1   73 1    
     4    1   74 1    
     5    2    3 2    
     6    2    4 am   BACKBONE|DICT|INTERRES
     7    4    5 1    
     8    4   75 1    
     9    5    6 1    
    10    5   35 1    
    11    5   76 1    
    12    6    7 1    
    13    6   77 1    
    14    6   78 1    
    15    7    8 1    
    16    8    9 1    
    17    8   79 1    
    18    8   80 1    
    19    9   10 ar   
    20    9   14 ar   
    21   10   11 ar   
    22   10   81 1    
    23   11   12 ar   
    24   11   71 1    
    25   12   13 ar   
    26   12   82 1    
    27   13   14 ar   
    28   13   15 1    
    29   14   83 1    
    30   15   16 1    
    31   15   84 1    
    32   15   85 1    
    33   16   17 1    
    34   17   18 1    
    35   17   86 1    
    36   17   87 1    
    37   18   19 1    
    38   18   37 1    
    39   18   88 1    
    40   19   20 am   BACKBONE|DICT|INTERRES
    41   19   89 1    
    42   20   21 2    
    43   20   22 1    
    44   22   23 1    
    45   22   24 1    
    46   22   90 1    
    47   23   91 1    
    48   23   92 1    
    49   23   93 1    
    50   24   25 am   BACKBONE|DICT|INTERRES
    51   24   94 1    
    52   25   26 2    
    53   25   27 1    
    54   27   28 1    
    55   27   29 1    
    56   27   95 1    
    57   28   96 1    
    58   28   97 1    
    59   28   98 1    
    60   29   30 am   BACKBONE|DICT|INTERRES
    61   29   99 1    
    62   30   31 2    
    63   30   32 1    
    64   32   33 1    
    65   32   34 1    
    66   32  100 1    
    67   33  101 1    
    68   33  102 1    
    69   33  103 1    
    70   34   35 am   BACKBONE|DICT|INTERRES
    71   34  104 1    
    72   35   36 2    
    73   37   38 2    
    74   37   39 am   BACKBONE|DICT|INTERRES
    75   39   40 1    
    76   39  105 1    
    77   40   41 1    
    78   40   42 1    
    79   40  106 1    
    80   41  107 1    
    81   41  108 1    
    82   41  109 1    
    83   42   43 2    
    84   42   44 am   BACKBONE|DICT|INTERRES
    85   44   45 1    
    86   44  110 1    
    87   45   46 1    
    88   45   47 1    
    89   45  111 1    
    90   46  112 1    
    91   46  113 1    
    92   46  114 1    
    93   47   48 2    
    94   47   49 am   BACKBONE|DICT|INTERRES
    95   49   50 1    
    96   49  115 1    
    97   50   51 1    
    98   50   52 1    
    99   50  116 1    
   100   51  117 1    
   101   51  118 1    
   102   51  119 1    
   103   52   53 2    
   104   52   54 am   BACKBONE|DICT|INTERRES
   105   54   55 1    
   106   54  120 1    
   107   55   56 1    
   108   55   57 1    
   109   55  121 1    
   110   56  122 1    
   111   56  123 1    
   112   56  124 1    
   113   57   58 2    
   114   57   59 am   BACKBONE|DICT|INTERRES
   115   59   60 1    
   116   59  125 1    
   117   60   61 1    
   118   60   62 1    
   119   60  126 1    
   120   61  127 1    
   121   61  128 1    
   122   61  129 1    
   123   62   63 2    
   124   62   64 am   BACKBONE|DICT|INTERRES
   125   64   65 1    
   126   64  130 1    
   127   65   66 1    
   128   65   69 1    
   129   65  131 1    
   130   66   67 am   BACKBONE|DICT|INTERRES
   131   66   68 2    
   132   67  132 1    
   133   67  133 1    
   134   69   70 1    
   135   69  134 1    
   136   69  135 1    
   137   70   71 1    
   138   71  136 1    
   139   71  137 1    
@<TRIPOS>SUBSTRUCTURE
     1 UNK         1 GROUP             0       ****    0 ROOT    
