@<TRIPOS>MOLECULE
3R136
137   139    1
SMALL
USER_CHARGES


@<TRIPOS>ATOM
      1 CA         27.4506   21.7139    1.1940 C.3       0 UNK        -0.1979 
      2 C          28.4583   22.6459    0.5377 C.2       0 UNK         0.4864 
      3 O          28.3382   23.8613    0.6893 O.2       0 UNK        -0.5359 
      4 N          29.4304   22.0694   -0.1863 N.am      1 UNK        -0.4318 
      5 CA         30.5297   22.7119   -0.9230 C.3       1 UNK         0.0824 
      6 C6         31.8371   22.8634   -0.0866 C.3       12 UNK        -0.0944 
      7 S7         31.7544   24.0219    1.3200 S.3       12 UNK        -0.2672 
      8 C8         31.6799   22.9111    2.7578 C.3       12 UNK         0.0333 
      9 C9         30.9986   23.6066    3.9268 C.ar      12 UNK        -0.0807 
     10 C10        31.6190   24.6810    4.5708 C.ar      12 UNK        -0.0894 
     11 C11        30.9650   25.3786    5.5932 C.ar      12 UNK        -0.0804 
     12 C12        29.6865   24.9703    5.9874 C.ar      12 UNK        -0.0824 
     13 C13        29.0631   23.8846    5.3629 C.ar      12 UNK        -0.0762 
     14 C14        29.7257   23.2054    4.3371 C.ar      12 UNK        -0.0782 
     15 C15        27.6651   23.4499    5.7767 C.3       12 UNK         0.0230 
     16 S16        26.4402   23.7740    4.4677 S.3       12 UNK        -0.2608 
     17 C17        26.4020   25.5987    4.4312 C.3       12 UNK        -0.0989 
     18 CA         27.1172   26.2187    3.1930 C.3       5 UNK         0.0716 
     19 N          26.6377   25.6951    1.9101 N.am      5 UNK        -0.4135 
     20 C          25.3946   25.7885    1.4222 C.2       4 UNK         0.5031 
     21 O          24.4711   26.3867    1.9793 O.2       4 UNK        -0.5229 
     22 CA         25.1581   25.0785    0.0759 C.3       4 UNK         0.0329 
     23 CB         23.6614   24.9204   -0.2687 C.3       4 UNK        -0.2001 
     24 N          25.8830   25.7225   -1.0254 N.am      4 UNK        -0.4303 
     25 C          25.7535   26.9874   -1.4556 C.2       3 UNK         0.5044 
     26 O          24.9678   27.8063   -0.9759 O.2       3 UNK        -0.5152 
     27 CA         26.6397   27.3925   -2.6524 C.3       3 UNK         0.0319 
     28 CB         26.7088   28.9179   -2.8734 C.3       3 UNK        -0.2001 
     29 N          27.9974   26.8336   -2.6402 N.am      3 UNK        -0.4354 
     30 C          28.9049   26.8929   -1.6540 C.2       2 UNK         0.4964 
     31 O          28.6819   27.3086   -0.5138 O.2       2 UNK        -0.5047 
     32 CA         30.3173   26.4156   -2.0302 C.3       2 UNK         0.0288 
     33 CB         31.3812   27.4554   -1.6380 C.3       2 UNK        -0.2113 
     34 N          30.6297   25.1359   -1.4016 N.am      2 UNK        -0.4145 
     35 C          30.0922   23.9561   -1.7363 C.2       1 UNK         0.5006 
     36 O          29.2909   23.8133   -2.6639 O.2       1 UNK        -0.5103 
     37 C          27.1009   27.7634    3.2305 C.2       5 UNK         0.5055 
     38 O          26.7080   28.3439    4.2467 O.2       5 UNK        -0.5220 
     39 N          27.5339   28.4230    2.1435 N.am      6 UNK        -0.4450 
     40 CA         27.6800   29.8821    2.0792 C.3       6 UNK         0.0367 
     41 CB         27.6990   30.3333    0.6103 C.3       6 UNK        -0.1929 
     42 C          28.9431   30.3187    2.8400 C.2       6 UNK         0.5070 
     43 O          29.9708   30.5885    2.2170 O.2       6 UNK        -0.5237 
     44 N          28.8498   30.3072    4.1773 N.am      7 UNK        -0.4739 
     45 CA         29.9340   30.3639    5.1673 C.3       7 UNK         0.0276 
     46 CB         29.3359   30.5902    6.5642 C.3       7 UNK        -0.1927 
     47 C          31.0695   31.3633    4.9018 C.2       7 UNK         0.5013 
     48 O          32.2291   31.0072    5.1072 O.2       7 UNK        -0.5193 
     49 N          30.7262   32.5649    4.4184 N.am      8 UNK        -0.4253 
     50 CA         31.6742   33.6246    4.0573 C.3       8 UNK         0.0242 
     51 CB         30.8942   34.8967    3.6875 C.3       8 UNK        -0.2000 
     52 C          32.6475   33.2425    2.9248 C.2       8 UNK         0.4948 
     53 O          33.7672   33.7551    2.9026 O.2       8 UNK        -0.5275 
     54 N          32.2124   32.3560    2.0202 N.am      9 UNK        -0.4246 
     55 CA         33.0287   31.7791    0.9529 C.3       9 UNK         0.0261 
     56 CB         32.2309   31.7931   -0.3625 C.3       9 UNK        -0.1959 
     57 C          33.4499   30.3461    1.3075 C.2       9 UNK         0.5033 
     58 O          34.6136   29.9929    1.1169 O.2       9 UNK        -0.5390 
     59 N          32.4981   29.5511    1.8144 N.am      10 UNK        -0.4215 
     60 CA         32.6383   28.1251    2.1092 C.3       10 UNK         0.0240 
     61 CB         31.2476   27.5555    2.4333 C.3       10 UNK        -0.1982 
     62 C          33.6476   27.8009    3.2245 C.2       10 UNK         0.4970 
     63 O          34.3422   26.7896    3.1207 O.2       10 UNK        -0.4916 
     64 N          33.7202   28.6572    4.2503 N.am      11 UNK        -0.4279 
     65 CA         34.6483   28.5556    5.3883 C.3       11 UNK         0.1003 
     66 C          35.5074   29.8446    5.5516 C.2       11 UNK         0.5709 
     67 N          35.6212   30.6976    4.5393 N.am      11 UNK        -0.7358 
     68 O          36.1098   30.0674    6.5995 O.2       11 UNK        -0.4999 
     69 C69        33.9113   28.1429    6.6968 C.3       12 UNK        -0.0954 
     70 S70        33.3412   26.4084    6.6649 S.3       12 UNK        -0.2268 
     71 C71        31.5915   26.6241    6.2121 C.3       12 UNK         0.0203 
     72 H72        26.4748   21.8219    0.7223 H         1 UNK         0.0888 
     73 H73        27.7510   20.6691    1.1190 H         1 UNK         0.0888 
     74 H74        27.3461   21.9579    2.2500 H         1 UNK         0.0888 
     75 H75        29.4139   21.0632   -0.2732 H         1 UNK         0.3017 
     76 H76        30.7763   21.9848   -1.6985 H         1 UNK         0.0873 
     77 H77        32.1461   21.8844    0.2826 H         1 UNK         0.0745 
     78 H78        32.6532   23.1879   -0.7348 H         1 UNK         0.0745 
     79 H79        32.6897   22.6089    3.0386 H         1 UNK         0.0705 
     80 H80        31.1408   22.0011    2.4898 H         1 UNK         0.0705 
     81 H81        32.5965   25.0035    4.2386 H         1 UNK         0.1334 
     82 H82        29.1666   25.5107    6.7667 H         1 UNK         0.1417 
     83 H83        29.2337   22.3806    3.8408 H         1 UNK         0.1562 
     84 H84        27.3538   23.9454    6.6977 H         1 UNK         0.0748 
     85 H85        27.6735   22.3808    5.9936 H         1 UNK         0.0748 
     86 H86        26.8468   25.9762    5.3536 H         1 UNK         0.0940 
     87 H87        25.3565   25.9102    4.4631 H         1 UNK         0.0940 
     88 H88        28.1695   25.9342    3.2484 H         1 UNK         0.0703 
     89 H89        27.3216   25.1492    1.3831 H         1 UNK         0.3081 
     90 H90        25.5724   24.0747    0.1742 H         1 UNK         0.0719 
     91 H91        23.1630   25.8838   -0.3809 H         1 UNK         0.0809 
     92 H92        23.5244   24.3624   -1.1948 H         1 UNK         0.0809 
     93 H93        23.1384   24.3762    0.5186 H         1 UNK         0.0809 
     94 H94        26.5980   25.1583   -1.4644 H         1 UNK         0.2990 
     95 H95        26.1475   26.9650   -3.5272 H         1 UNK         0.0690 
     96 H96        27.2148   29.1564   -3.8088 H         1 UNK         0.0788 
     97 H97        27.2499   29.4160   -2.0711 H         1 UNK         0.0788 
     98 H98        25.7138   29.3614   -2.9273 H         1 UNK         0.0788 
     99 H99        28.2861   26.4024   -3.5079 H         1 UNK         0.2993 
    100 H100       30.3722   26.2823   -3.1130 H         1 UNK         0.0949 
    101 H101       31.3934   27.6350   -0.5645 H         1 UNK         0.0767 
    102 H102       32.3801   27.1366   -1.9363 H         1 UNK         0.0767 
    103 H103       31.1866   28.4131   -2.1225 H         1 UNK         0.0767 
    104 H104       31.2066   25.1609   -0.5701 H         1 UNK         0.3013 
    105 H105       27.8594   27.8996    1.3354 H         1 UNK         0.3121 
    106 H106       26.8168   30.3518    2.5557 H         1 UNK         0.0774 
    107 H107       27.7982   31.4168    0.5361 H         1 UNK         0.0815 
    108 H108       28.5307   29.8927    0.0596 H         1 UNK         0.0815 
    109 H109       26.7723   30.0558    0.1084 H         1 UNK         0.0815 
    110 H110       27.9548   29.9976    4.5420 H         1 UNK         0.2987 
    111 H111       30.3913   29.3760    5.1687 H         1 UNK         0.0949 
    112 H112       28.6444   29.7916    6.8340 H         1 UNK         0.0806 
    113 H113       30.1160   30.6105    7.3270 H         1 UNK         0.0806 
    114 H114       28.7960   31.5360    6.6231 H         1 UNK         0.0806 
    115 H115       29.7462   32.7504    4.2610 H         1 UNK         0.3010 
    116 H116       32.2781   33.8376    4.9420 H         1 UNK         0.0829 
    117 H117       30.2725   35.2373    4.5157 H         1 UNK         0.0813 
    118 H118       31.5743   35.7128    3.4388 H         1 UNK         0.0813 
    119 H119       30.2477   34.7369    2.8235 H         1 UNK         0.0813 
    120 H120       31.2845   31.9580    2.1411 H         1 UNK         0.3038 
    121 H121       33.9357   32.3691    0.8044 H         1 UNK         0.0769 
    122 H122       32.8118   31.3565   -1.1761 H         1 UNK         0.0811 
    123 H123       31.9749   32.8109   -0.6568 H         1 UNK         0.0811 
    124 H124       31.3022   31.2257   -0.2828 H         1 UNK         0.0811 
    125 H125       31.5617   29.9385    1.9326 H         1 UNK         0.3204 
    126 H126       33.0007   27.6387    1.2015 H         1 UNK         0.0748 
    127 H127       31.2923   26.4843    2.6064 H         1 UNK         0.0771 
    128 H128       30.8206   28.0076    3.3257 H         1 UNK         0.0771 
    129 H129       30.5453   27.7153    1.6154 H         1 UNK         0.0771 
    130 H130       33.1322   29.4853    4.2653 H         1 UNK         0.2980 
    131 H131       35.3902   27.7836    5.1782 H         1 UNK         0.0545 
    132 H132       36.1815   31.5268    4.6549 H         1 UNK         0.3459 
    133 H133       35.1730   30.5090    3.6567 H         1 UNK         0.3459 
    134 H134       33.0731   28.8127    6.8974 H         1 UNK         0.0616 
    135 H135       34.5751   28.2261    7.5587 H         1 UNK         0.0616 
    136 H136       31.0396   26.9440    7.0971 H         1 UNK         0.0634 
    137 H137       31.5122   27.4303    5.4872 H         1 UNK         0.0634 
@<TRIPOS>BOND
     1    1    2 1    
     2    1   72 1    
     3    1   73 1    
     4    1   74 1    
     5    2    3 2    
     6    2    4 am   BACKBONE|DICT|INTERRES
     7    4    5 1    
     8    4   75 1    
     9    5    6 1    
    10    5   35 1    
    11    5   76 1    
    12    6    7 1    
    13    6   77 1    
    14    6   78 1    
    15    7    8 1    
    16    8    9 1    
    17    8   79 1    
    18    8   80 1    
    19    9   10 ar   
    20    9   14 ar   
    21   10   11 ar   
    22   10   81 1    
    23   11   12 ar   
    24   11   71 1    
    25   12   13 ar   
    26   12   82 1    
    27   13   14 ar   
    28   13   15 1    
    29   14   83 1    
    30   15   16 1    
    31   15   84 1    
    32   15   85 1    
    33   16   17 1    
    34   17   18 1    
    35   17   86 1    
    36   17   87 1    
    37   18   19 1    
    38   18   37 1    
    39   18   88 1    
    40   19   20 am   BACKBONE|DICT|INTERRES
    41   19   89 1    
    42   20   21 2    
    43   20   22 1    
    44   22   23 1    
    45   22   24 1    
    46   22   90 1    
    47   23   91 1    
    48   23   92 1    
    49   23   93 1    
    50   24   25 am   BACKBONE|DICT|INTERRES
    51   24   94 1    
    52   25   26 2    
    53   25   27 1    
    54   27   28 1    
    55   27   29 1    
    56   27   95 1    
    57   28   96 1    
    58   28   97 1    
    59   28   98 1    
    60   29   30 am   BACKBONE|DICT|INTERRES
    61   29   99 1    
    62   30   31 2    
    63   30   32 1    
    64   32   33 1    
    65   32   34 1    
    66   32  100 1    
    67   33  101 1    
    68   33  102 1    
    69   33  103 1    
    70   34   35 am   BACKBONE|DICT|INTERRES
    71   34  104 1    
    72   35   36 2    
    73   37   38 2    
    74   37   39 am   BACKBONE|DICT|INTERRES
    75   39   40 1    
    76   39  105 1    
    77   40   41 1    
    78   40   42 1    
    79   40  106 1    
    80   41  107 1    
    81   41  108 1    
    82   41  109 1    
    83   42   43 2    
    84   42   44 am   BACKBONE|DICT|INTERRES
    85   44   45 1    
    86   44  110 1    
    87   45   46 1    
    88   45   47 1    
    89   45  111 1    
    90   46  112 1    
    91   46  113 1    
    92   46  114 1    
    93   47   48 2    
    94   47   49 am   BACKBONE|DICT|INTERRES
    95   49   50 1    
    96   49  115 1    
    97   50   51 1    
    98   50   52 1    
    99   50  116 1    
   100   51  117 1    
   101   51  118 1    
   102   51  119 1    
   103   52   53 2    
   104   52   54 am   BACKBONE|DICT|INTERRES
   105   54   55 1    
   106   54  120 1    
   107   55   56 1    
   108   55   57 1    
   109   55  121 1    
   110   56  122 1    
   111   56  123 1    
   112   56  124 1    
   113   57   58 2    
   114   57   59 am   BACKBONE|DICT|INTERRES
   115   59   60 1    
   116   59  125 1    
   117   60   61 1    
   118   60   62 1    
   119   60  126 1    
   120   61  127 1    
   121   61  128 1    
   122   61  129 1    
   123   62   63 2    
   124   62   64 am   BACKBONE|DICT|INTERRES
   125   64   65 1    
   126   64  130 1    
   127   65   66 1    
   128   65   69 1    
   129   65  131 1    
   130   66   67 am   BACKBONE|DICT|INTERRES
   131   66   68 2    
   132   67  132 1    
   133   67  133 1    
   134   69   70 1    
   135   69  134 1    
   136   69  135 1    
   137   70   71 1    
   138   71  136 1    
   139   71  137 1    
@<TRIPOS>SUBSTRUCTURE
     1 UNK         1 GROUP             0       ****    0 ROOT    
