@<TRIPOS>MOLECULE
3R136
137   139    1
SMALL
USER_CHARGES


@<TRIPOS>ATOM
      1 CA         30.5333   20.0360   -1.7707 C.3       0 UNK        -0.1979 
      2 C          30.2904   21.4906   -2.1453 C.2       0 UNK         0.4864 
      3 O          30.5257   21.8741   -3.2919 O.2       0 UNK        -0.5359 
      4 N          29.8188   22.3010   -1.1877 N.am      1 UNK        -0.4318 
      5 CA         29.5405   23.7338   -1.3650 C.3       1 UNK         0.0824 
      6 C6         29.5213   24.4909   -0.0111 C.3       12 UNK        -0.0944 
      7 S7         31.1894   24.5405    0.7252 S.3       12 UNK        -0.2672 
      8 C8         31.0706   23.3497    2.1003 C.3       12 UNK         0.0333 
      9 C9         30.8249   24.0387    3.4361 C.ar      12 UNK        -0.0807 
     10 C10        31.7800   24.9263    3.9431 C.ar      12 UNK        -0.0894 
     11 C11        31.5947   25.5554    5.1812 C.ar      12 UNK        -0.0804 
     12 C12        30.4381   25.2698    5.9119 C.ar      12 UNK        -0.0824 
     13 C13        29.4813   24.3720    5.4286 C.ar      12 UNK        -0.0762 
     14 C14        29.6772   23.7613    4.1856 C.ar      12 UNK        -0.0782 
     15 C15        28.2560   24.0444    6.2744 C.3       12 UNK         0.0230 
     16 S16        26.6929   24.6091    5.5281 S.3       12 UNK        -0.2608 
     17 C17        27.0109   26.3833    5.2274 C.3       12 UNK        -0.0989 
     18 CA         27.0870   26.6823    3.7048 C.3       5 UNK         0.0716 
     19 N          25.8525   26.3345    2.9876 N.am      5 UNK        -0.4135 
     20 C          24.6340   26.8643    3.1541 C.2       4 UNK         0.5031 
     21 O          24.3915   27.8086    3.9078 O.2       4 UNK        -0.5229 
     22 CA         23.5022   26.2304    2.3170 C.3       4 UNK         0.0329 
     23 CB         22.1109   26.7637    2.7082 C.3       4 UNK        -0.2001 
     24 N          23.6867   26.4107    0.8727 N.am      4 UNK        -0.4303 
     25 C          24.6068   25.7974    0.1174 C.2       3 UNK         0.5044 
     26 O          25.4524   25.0184    0.5687 O.2       3 UNK        -0.5152 
     27 CA         24.6023   26.1523   -1.3798 C.3       3 UNK         0.0319 
     28 CB         25.2163   27.5438   -1.6058 C.3       3 UNK        -0.2001 
     29 N          25.3687   25.1781   -2.1531 N.am      3 UNK        -0.4354 
     30 C          24.9991   23.9191   -2.4100 C.2       2 UNK         0.4964 
     31 O          23.8737   23.4751   -2.1777 O.2       2 UNK        -0.5047 
     32 CA         26.0720   22.9861   -3.0018 C.3       2 UNK         0.0288 
     33 CB         26.2559   23.2294   -4.5131 C.3       2 UNK        -0.2113 
     34 N          27.3603   23.0087   -2.2861 N.am      2 UNK        -0.4145 
     35 C          28.2562   24.0055   -2.1786 C.2       1 UNK         0.5006 
     36 O          28.1065   25.1170   -2.6901 O.2       1 UNK        -0.5103 
     37 C          27.5925   28.1077    3.3864 C.2       5 UNK         0.5055 
     38 O          28.3576   28.6792    4.1659 O.2       5 UNK        -0.5220 
     39 N          27.2088   28.6458    2.2191 N.am      6 UNK        -0.4450 
     40 CA         27.6470   29.9402    1.6896 C.3       6 UNK         0.0367 
     41 CB         26.5634   30.4863    0.7413 C.3       6 UNK        -0.1929 
     42 C          29.0286   29.8262    1.0148 C.2       6 UNK         0.5070 
     43 O          29.1784   30.1573   -0.1628 O.2       6 UNK        -0.5237 
     44 N          30.0072   29.3201    1.7716 N.am      7 UNK        -0.4739 
     45 CA         31.3983   29.1489    1.3578 C.3       7 UNK         0.0276 
     46 CB         32.0683   28.1637    2.3263 C.3       7 UNK        -0.1927 
     47 C          32.1572   30.4848    1.3384 C.2       7 UNK         0.5013 
     48 O          31.7178   31.4551    1.9644 O.2       7 UNK        -0.5193 
     49 N          33.3120   30.4944    0.6566 N.am      8 UNK        -0.4253 
     50 CA         34.2439   31.6240    0.5763 C.3       8 UNK         0.0242 
     51 CB         35.4589   31.2250   -0.2777 C.3       8 UNK        -0.2000 
     52 C          34.6833   32.0868    1.9751 C.2       8 UNK         0.4948 
     53 O          35.2983   31.3059    2.7056 O.2       8 UNK        -0.5275 
     54 N          34.2766   33.3116    2.3422 N.am      9 UNK        -0.4246 
     55 CA         34.4310   33.9396    3.6626 C.3       9 UNK         0.0261 
     56 CB         35.9119   34.2970    3.9133 C.3       9 UNK        -0.1959 
     57 C          33.8251   33.1158    4.8213 C.2       9 UNK         0.5033 
     58 O          34.3078   33.2189    5.9506 O.2       9 UNK        -0.5390 
     59 N          32.8187   32.2759    4.5214 N.am      10 UNK        -0.4215 
     60 CA         32.2112   31.2726    5.4066 C.3       10 UNK         0.0240 
     61 CB         31.3450   31.9556    6.4859 C.3       10 UNK        -0.1982 
     62 C          33.2414   30.2836    5.9968 C.2       10 UNK         0.4970 
     63 O          33.0966   29.8681    7.1475 O.2       10 UNK        -0.4916 
     64 N          34.2711   29.9507    5.2034 N.am      11 UNK        -0.4279 
     65 CA         35.4578   29.1663    5.5853 C.3       11 UNK         0.1003 
     66 C          36.4449   29.9121    6.5364 C.2       11 UNK         0.5709 
     67 N          36.2836   31.2022    6.8094 N.am      11 UNK        -0.7358 
     68 O          37.4071   29.3167    7.0165 O.2       11 UNK        -0.4999 
     69 C69        35.1401   27.7241    6.0831 C.3       12 UNK        -0.0954 
     70 S70        34.1838   26.7245    4.8940 S.3       12 UNK        -0.2268 
     71 C71        32.5998   26.5396    5.7860 C.3       12 UNK         0.0203 
     72 H72        29.9254   19.3812   -2.3944 H         1 UNK         0.0888 
     73 H73        31.5807   19.7792   -1.9265 H         1 UNK         0.0888 
     74 H74        30.2874   19.8359   -0.7280 H         1 UNK         0.0888 
     75 H75        29.6554   21.9315   -0.2626 H         1 UNK         0.3017 
     76 H76        30.3529   24.1536   -1.9632 H         1 UNK         0.0873 
     77 H77        28.8043   24.0503    0.6841 H         1 UNK         0.0745 
     78 H78        29.2072   25.5275   -0.1509 H         1 UNK         0.0745 
     79 H79        30.3021   22.6049    1.8908 H         1 UNK         0.0705 
     80 H80        32.0119   22.8019    2.1625 H         1 UNK         0.0705 
     81 H81        32.6641   25.1211    3.3535 H         1 UNK         0.1334 
     82 H82        30.2882   25.7441    6.8726 H         1 UNK         0.1417 
     83 H83        28.9393   23.0645    3.8117 H         1 UNK         0.1562 
     84 H84        28.3438   24.4817    7.2703 H         1 UNK         0.0748 
     85 H85        28.2040   22.9649    6.4222 H         1 UNK         0.0748 
     86 H86        27.9322   26.6744    5.7336 H         1 UNK         0.0940 
     87 H87        26.2196   26.9679    5.6990 H         1 UNK         0.0940 
     88 H88        27.8552   26.0284    3.2885 H         1 UNK         0.0703 
     89 H89        25.9365   25.6053    2.2826 H         1 UNK         0.3081 
     90 H90        23.5135   25.1590    2.5294 H         1 UNK         0.0719 
     91 H91        22.0138   27.8307    2.5032 H         1 UNK         0.0809 
     92 H92        21.3194   26.2439    2.1680 H         1 UNK         0.0809 
     93 H93        21.9219   26.6179    3.7727 H         1 UNK         0.0809 
     94 H94        23.0559   27.0603    0.4247 H         1 UNK         0.2990 
     95 H95        23.5707   26.1511   -1.7378 H         1 UNK         0.0690 
     96 H96        26.2498   27.5887   -1.2586 H         1 UNK         0.0788 
     97 H97        24.6560   28.3157   -1.0769 H         1 UNK         0.0788 
     98 H98        25.2095   27.8112   -2.6628 H         1 UNK         0.0788 
     99 H99        26.3367   25.4153   -2.3579 H         1 UNK         0.2993 
    100 H100       25.6922   21.9697   -2.8837 H         1 UNK         0.0949 
    101 H101       26.9630   22.5205   -4.9441 H         1 UNK         0.0767 
    102 H102       25.3104   23.1077   -5.0433 H         1 UNK         0.0767 
    103 H103       26.6183   24.2353   -4.7269 H         1 UNK         0.0767 
    104 H104       27.5844   22.1532   -1.7979 H         1 UNK         0.3013 
    105 H105       26.6109   28.0954    1.6218 H         1 UNK         0.3121 
    106 H106       27.7489   30.6461    2.5169 H         1 UNK         0.0774 
    107 H107       26.4377   29.8542   -0.1375 H         1 UNK         0.0815 
    108 H108       25.5982   30.5646    1.2421 H         1 UNK         0.0815 
    109 H109       26.8251   31.4843    0.3873 H         1 UNK         0.0815 
    110 H110       29.7822   29.0996    2.7356 H         1 UNK         0.2987 
    111 H111       31.4126   28.7247    0.3512 H         1 UNK         0.0949 
    112 H112       33.1017   27.9613    2.0419 H         1 UNK         0.0806 
    113 H113       32.0796   28.5438    3.3483 H         1 UNK         0.0806 
    114 H114       31.5444   27.2087    2.3320 H         1 UNK         0.0806 
    115 H115       33.6080   29.6431    0.2016 H         1 UNK         0.3010 
    116 H116       33.7272   32.4436    0.0725 H         1 UNK         0.0829 
    117 H117       35.1620   30.9515   -1.2904 H         1 UNK         0.0813 
    118 H118       36.1650   32.0524   -0.3606 H         1 UNK         0.0813 
    119 H119       35.9975   30.3805    0.1550 H         1 UNK         0.0813 
    120 H120       33.7394   33.8478    1.6739 H         1 UNK         0.3038 
    121 H121       33.8647   34.8715    3.6288 H         1 UNK         0.0769 
    122 H122       36.0258   34.8879    4.8230 H         1 UNK         0.0811 
    123 H123       36.3229   34.8866    3.0939 H         1 UNK         0.0811 
    124 H124       36.5283   33.4044    4.0268 H         1 UNK         0.0811 
    125 H125       32.4968   32.2373    3.5560 H         1 UNK         0.3204 
    126 H126       31.5462   30.6761    4.7800 H         1 UNK         0.0748 
    127 H127       30.7884   31.2185    7.0660 H         1 UNK         0.0771 
    128 H128       31.9513   32.5315    7.1859 H         1 UNK         0.0771 
    129 H129       30.6155   32.6310    6.0390 H         1 UNK         0.0771 
    130 H130       34.3450   30.3915    4.2928 H         1 UNK         0.2980 
    131 H131       36.0187   29.0599    4.6562 H         1 UNK         0.0545 
    132 H132       36.9463   31.6555    7.4173 H         1 UNK         0.3459 
    133 H133       35.5055   31.7352    6.4350 H         1 UNK         0.3459 
    134 H134       36.0675   27.1778    6.2622 H         1 UNK         0.0616 
    135 H135       34.6287   27.7517    7.0459 H         1 UNK         0.0616 
    136 H136       32.1251   27.5184    5.8567 H         1 UNK         0.0634 
    137 H137       32.8181   26.2224    6.8068 H         1 UNK         0.0634 
@<TRIPOS>BOND
     1    1    2 1    
     2    1   72 1    
     3    1   73 1    
     4    1   74 1    
     5    2    3 2    
     6    2    4 am   BACKBONE|DICT|INTERRES
     7    4    5 1    
     8    4   75 1    
     9    5    6 1    
    10    5   35 1    
    11    5   76 1    
    12    6    7 1    
    13    6   77 1    
    14    6   78 1    
    15    7    8 1    
    16    8    9 1    
    17    8   79 1    
    18    8   80 1    
    19    9   10 ar   
    20    9   14 ar   
    21   10   11 ar   
    22   10   81 1    
    23   11   12 ar   
    24   11   71 1    
    25   12   13 ar   
    26   12   82 1    
    27   13   14 ar   
    28   13   15 1    
    29   14   83 1    
    30   15   16 1    
    31   15   84 1    
    32   15   85 1    
    33   16   17 1    
    34   17   18 1    
    35   17   86 1    
    36   17   87 1    
    37   18   19 1    
    38   18   37 1    
    39   18   88 1    
    40   19   20 am   BACKBONE|DICT|INTERRES
    41   19   89 1    
    42   20   21 2    
    43   20   22 1    
    44   22   23 1    
    45   22   24 1    
    46   22   90 1    
    47   23   91 1    
    48   23   92 1    
    49   23   93 1    
    50   24   25 am   BACKBONE|DICT|INTERRES
    51   24   94 1    
    52   25   26 2    
    53   25   27 1    
    54   27   28 1    
    55   27   29 1    
    56   27   95 1    
    57   28   96 1    
    58   28   97 1    
    59   28   98 1    
    60   29   30 am   BACKBONE|DICT|INTERRES
    61   29   99 1    
    62   30   31 2    
    63   30   32 1    
    64   32   33 1    
    65   32   34 1    
    66   32  100 1    
    67   33  101 1    
    68   33  102 1    
    69   33  103 1    
    70   34   35 am   BACKBONE|DICT|INTERRES
    71   34  104 1    
    72   35   36 2    
    73   37   38 2    
    74   37   39 am   BACKBONE|DICT|INTERRES
    75   39   40 1    
    76   39  105 1    
    77   40   41 1    
    78   40   42 1    
    79   40  106 1    
    80   41  107 1    
    81   41  108 1    
    82   41  109 1    
    83   42   43 2    
    84   42   44 am   BACKBONE|DICT|INTERRES
    85   44   45 1    
    86   44  110 1    
    87   45   46 1    
    88   45   47 1    
    89   45  111 1    
    90   46  112 1    
    91   46  113 1    
    92   46  114 1    
    93   47   48 2    
    94   47   49 am   BACKBONE|DICT|INTERRES
    95   49   50 1    
    96   49  115 1    
    97   50   51 1    
    98   50   52 1    
    99   50  116 1    
   100   51  117 1    
   101   51  118 1    
   102   51  119 1    
   103   52   53 2    
   104   52   54 am   BACKBONE|DICT|INTERRES
   105   54   55 1    
   106   54  120 1    
   107   55   56 1    
   108   55   57 1    
   109   55  121 1    
   110   56  122 1    
   111   56  123 1    
   112   56  124 1    
   113   57   58 2    
   114   57   59 am   BACKBONE|DICT|INTERRES
   115   59   60 1    
   116   59  125 1    
   117   60   61 1    
   118   60   62 1    
   119   60  126 1    
   120   61  127 1    
   121   61  128 1    
   122   61  129 1    
   123   62   63 2    
   124   62   64 am   BACKBONE|DICT|INTERRES
   125   64   65 1    
   126   64  130 1    
   127   65   66 1    
   128   65   69 1    
   129   65  131 1    
   130   66   67 am   BACKBONE|DICT|INTERRES
   131   66   68 2    
   132   67  132 1    
   133   67  133 1    
   134   69   70 1    
   135   69  134 1    
   136   69  135 1    
   137   70   71 1    
   138   71  136 1    
   139   71  137 1    
@<TRIPOS>SUBSTRUCTURE
     1 UNK         1 GROUP             0       ****    0 ROOT    
