@<TRIPOS>MOLECULE
3R136
137   139    1
SMALL
USER_CHARGES


@<TRIPOS>ATOM
      1 CA         30.4317   17.0846   -0.6028 C.3       0 UNK        -0.1979 
      2 C          30.9420   18.2268    0.2627 C.2       0 UNK         0.4864 
      3 O          32.1490   18.3362    0.4818 O.2       0 UNK        -0.5359 
      4 N          30.0318   19.0774    0.7561 N.am      1 UNK        -0.4318 
      5 CA         30.3321   20.2446    1.5954 C.3       1 UNK         0.0824 
      6 C6         29.0787   20.7542    2.3537 C.3       12 UNK        -0.0944 
      7 S7         27.5959   20.9956    1.3100 S.3       12 UNK        -0.2672 
      8 C8         27.7066   22.7511    0.8479 C.3       12 UNK         0.0333 
      9 C9         27.3210   23.6871    1.9826 C.ar      12 UNK        -0.0807 
     10 C10        28.2995   24.2212    2.8274 C.ar      12 UNK        -0.0894 
     11 C11        27.9490   25.1333    3.8267 C.ar      12 UNK        -0.0804 
     12 C12        26.6104   25.4911    3.9958 C.ar      12 UNK        -0.0824 
     13 C13        25.6359   25.0149    3.1177 C.ar      12 UNK        -0.0762 
     14 C14        25.9897   24.0851    2.1349 C.ar      12 UNK        -0.0782 
     15 C15        24.2233   25.5755    3.1693 C.3       12 UNK         0.0230 
     16 S16        23.8538   26.5514    1.6714 S.3       12 UNK        -0.2608 
     17 C17        24.6716   28.1708    1.9492 C.3       12 UNK        -0.0989 
     18 CA         26.2323   28.1895    1.9962 C.3       5 UNK         0.0716 
     19 N          26.8880   27.2920    1.0359 N.am      5 UNK        -0.4135 
     20 C          26.8356   27.3752   -0.2987 C.2       4 UNK         0.5031 
     21 O          26.2203   28.2559   -0.9038 O.2       4 UNK        -0.5229 
     22 CA         27.5975   26.2883   -1.0897 C.3       4 UNK         0.0329 
     23 CB         27.8718   26.7166   -2.5483 C.3       4 UNK        -0.2001 
     24 N          28.8501   25.8111   -0.4798 N.am      4 UNK        -0.4303 
     25 C          29.8967   26.5456   -0.0717 C.2       3 UNK         0.5044 
     26 O          29.8626   27.7700    0.0518 O.2       3 UNK        -0.5152 
     27 CA         31.2175   25.8030    0.2310 C.3       3 UNK         0.0319 
     28 CB         31.6493   25.9645    1.6959 C.3       3 UNK        -0.2001 
     29 N          31.2433   24.3743   -0.1073 N.am      3 UNK        -0.4354 
     30 C          31.2838   23.8598   -1.3419 C.2       2 UNK         0.4964 
     31 O          31.1775   24.5422   -2.3604 O.2       2 UNK        -0.5047 
     32 CA         31.4910   22.3372   -1.4885 C.3       2 UNK         0.0288 
     33 CB         32.9935   22.0114   -1.5947 C.3       2 UNK        -0.2113 
     34 N          30.8456   21.4683   -0.4874 N.am      2 UNK        -0.4145 
     35 C          31.0560   21.3808    0.8372 C.2       1 UNK         0.5006 
     36 O          31.7803   22.1513    1.4690 O.2       1 UNK        -0.5103 
     37 C          26.8073   29.6268    1.9901 C.2       5 UNK         0.5055 
     38 O          26.1368   30.5448    2.4688 O.2       5 UNK        -0.5220 
     39 N          28.0317   29.8158    1.4736 N.am      6 UNK        -0.4450 
     40 CA         28.7173   31.1059    1.4194 C.3       6 UNK         0.0367 
     41 CB         29.7074   31.0959    0.2424 C.3       6 UNK        -0.1929 
     42 C          29.3946   31.4076    2.7676 C.2       6 UNK         0.5070 
     43 O          30.5877   31.1414    2.9361 O.2       6 UNK        -0.5237 
     44 N          28.6045   31.9309    3.7146 N.am      7 UNK        -0.4739 
     45 CA         29.0166   32.3366    5.0631 C.3       7 UNK         0.0276 
     46 CB         27.8060   32.9281    5.8022 C.3       7 UNK        -0.1927 
     47 C          30.1825   33.3377    5.0507 C.2       7 UNK         0.5013 
     48 O          30.1259   34.3220    4.3102 O.2       7 UNK        -0.5193 
     49 N          31.2239   33.0476    5.8430 N.am      8 UNK        -0.4253 
     50 CA         32.4983   33.7652    5.9966 C.3       8 UNK         0.0242 
     51 CB         32.2879   35.2230    6.4519 C.3       8 UNK        -0.2000 
     52 C          33.4212   33.6890    4.7665 C.2       8 UNK         0.4948 
     53 O          34.6364   33.5872    4.9391 O.2       8 UNK        -0.5275 
     54 N          32.8448   33.7263    3.5587 N.am      9 UNK        -0.4246 
     55 CA         33.5419   33.5960    2.2802 C.3       9 UNK         0.0261 
     56 CB         32.5892   33.9850    1.1403 C.3       9 UNK        -0.1959 
     57 C          34.1282   32.1919    2.0539 C.2       9 UNK         0.5033 
     58 O          35.2401   32.0909    1.5319 O.2       9 UNK        -0.5390 
     59 N          33.3921   31.1461    2.4546 N.am      10 UNK        -0.4215 
     60 CA         33.8332   29.7524    2.3790 C.3       10 UNK         0.0240 
     61 CB         33.3224   29.0996    1.0839 C.3       10 UNK        -0.1982 
     62 C          33.4186   28.9518    3.6209 C.2       10 UNK         0.4970 
     63 O          34.2539   28.2213    4.1553 O.2       10 UNK        -0.4916 
     64 N          32.1638   29.0934    4.0706 N.am      11 UNK        -0.4279 
     65 CA         31.6627   28.4556    5.2974 C.3       11 UNK         0.1003 
     66 C          32.1663   29.2208    6.5482 C.2       11 UNK         0.5709 
     67 N          32.8834   28.5598    7.4460 N.am      11 UNK        -0.7358 
     68 O          31.8717   30.4022    6.7253 O.2       11 UNK        -0.4999 
     69 C69        30.1170   28.3439    5.3270 C.3       12 UNK        -0.0954 
     70 S70        29.4148   27.4297    3.9220 S.3       12 UNK        -0.2268 
     71 C71        29.0107   25.8188    4.6675 C.3       12 UNK         0.0203 
     72 H72        30.6850   16.1268   -0.1465 H         1 UNK         0.0888 
     73 H73        29.3493   17.1243   -0.7320 H         1 UNK         0.0888 
     74 H74        30.8938   17.1254   -1.5910 H         1 UNK         0.0888 
     75 H75        29.0510   18.9349    0.5556 H         1 UNK         0.3017 
     76 H76        31.0420   19.9091    2.3549 H         1 UNK         0.0873 
     77 H77        28.8075   20.0140    3.1078 H         1 UNK         0.0745 
     78 H78        29.3009   21.6569    2.9219 H         1 UNK         0.0745 
     79 H79        27.0480   22.9220   -0.0054 H         1 UNK         0.0705 
     80 H80        28.7104   22.9806    0.4966 H         1 UNK         0.0705 
     81 H81        29.3356   23.9494    2.6882 H         1 UNK         0.1334 
     82 H82        26.3449   26.2166    4.7529 H         1 UNK         0.1417 
     83 H83        25.2350   23.7140    1.4543 H         1 UNK         0.1562 
     84 H84        24.0676   26.1914    4.0566 H         1 UNK         0.0748 
     85 H85        23.5149   24.7485    3.2372 H         1 UNK         0.0748 
     86 H86        24.2677   28.6003    2.8680 H         1 UNK         0.0940 
     87 H87        24.3265   28.8253    1.1462 H         1 UNK         0.0940 
     88 H88        26.5199   27.8257    2.9774 H         1 UNK         0.0703 
     89 H89        27.4171   26.5343    1.4448 H         1 UNK         0.3081 
     90 H90        26.9290   25.4253   -1.1207 H         1 UNK         0.0719 
     91 H91        28.5003   27.6086   -2.5908 H         1 UNK         0.0809 
     92 H92        28.3745   25.9266   -3.1075 H         1 UNK         0.0809 
     93 H93        26.9444   26.9432   -3.0763 H         1 UNK         0.0809 
     94 H94        29.0009   24.8153   -0.5271 H         1 UNK         0.2990 
     95 H95        31.9743   26.2947   -0.3835 H         1 UNK         0.0690 
     96 H96        32.6810   25.6449    1.8413 H         1 UNK         0.0788 
     97 H97        31.0262   25.3835    2.3715 H         1 UNK         0.0788 
     98 H98        31.5883   27.0034    2.0149 H         1 UNK         0.0788 
     99 H99        31.3986   23.7221    0.6590 H         1 UNK         0.2993 
    100 H100       31.0337   22.0658   -2.4416 H         1 UNK         0.0949 
    101 H101       33.5277   22.2511   -0.6744 H         1 UNK         0.0767 
    102 H102       33.1549   20.9547   -1.8088 H         1 UNK         0.0767 
    103 H103       33.4620   22.5802   -2.3995 H         1 UNK         0.0767 
    104 H104       30.1934   20.7999   -0.8738 H         1 UNK         0.3013 
    105 H105       28.5476   29.0187    1.1131 H         1 UNK         0.3121 
    106 H106       27.9866   31.8930    1.2198 H         1 UNK         0.0774 
    107 H107       29.2087   30.8330   -0.6906 H         1 UNK         0.0815 
    108 H108       30.1549   32.0782    0.1000 H         1 UNK         0.0815 
    109 H109       30.5163   30.3833    0.3943 H         1 UNK         0.0815 
    110 H110       27.6275   32.0600    3.4850 H         1 UNK         0.2987 
    111 H111       29.3350   31.4460    5.6021 H         1 UNK         0.0949 
    112 H112       26.9941   32.2044    5.8790 H         1 UNK         0.0806 
    113 H113       28.0739   33.2221    6.8181 H         1 UNK         0.0806 
    114 H114       27.4200   33.8148    5.2973 H         1 UNK         0.0806 
    115 H115       31.2093   32.1528    6.3280 H         1 UNK         0.3010 
    116 H116       33.0210   33.2457    6.8017 H         1 UNK         0.0829 
    117 H117       31.6786   35.2727    7.3543 H         1 UNK         0.0813 
    118 H118       33.2430   35.6987    6.6789 H         1 UNK         0.0813 
    119 H119       31.8029   35.8273    5.6848 H         1 UNK         0.0813 
    120 H120       31.8374   33.8572    3.5311 H         1 UNK         0.3038 
    121 H121       34.3749   34.3024    2.2812 H         1 UNK         0.0769 
    122 H122       33.0649   33.8560    0.1670 H         1 UNK         0.0811 
    123 H123       32.2858   35.0293    1.2179 H         1 UNK         0.0811 
    124 H124       31.6875   33.3748    1.1511 H         1 UNK         0.0811 
    125 H125       32.4585   31.3120    2.8250 H         1 UNK         0.3204 
    126 H126       34.9250   29.7256    2.3541 H         1 UNK         0.0748 
    127 H127       33.6905   28.0772    0.9920 H         1 UNK         0.0771 
    128 H128       32.2342   29.0612    1.0551 H         1 UNK         0.0771 
    129 H129       33.6613   29.6456    0.2034 H         1 UNK         0.0771 
    130 H130       31.5218   29.7289    3.6034 H         1 UNK         0.2980 
    131 H131       32.0554   27.4370    5.3317 H         1 UNK         0.0545 
    132 H132       33.2017   29.0447    8.2702 H         1 UNK         0.3459 
    133 H133       33.1309   27.5925    7.3059 H         1 UNK         0.3459 
    134 H134       29.7870   27.8804    6.2581 H         1 UNK         0.0616 
    135 H135       29.6632   29.3316    5.3106 H         1 UNK         0.0616 
    136 H136       29.9130   25.2092    4.7371 H         1 UNK         0.0634 
    137 H137       28.6389   25.9529    5.6846 H         1 UNK         0.0634 
@<TRIPOS>BOND
     1    1    2 1    
     2    1   72 1    
     3    1   73 1    
     4    1   74 1    
     5    2    3 2    
     6    2    4 am   BACKBONE|DICT|INTERRES
     7    4    5 1    
     8    4   75 1    
     9    5    6 1    
    10    5   35 1    
    11    5   76 1    
    12    6    7 1    
    13    6   77 1    
    14    6   78 1    
    15    7    8 1    
    16    8    9 1    
    17    8   79 1    
    18    8   80 1    
    19    9   10 ar   
    20    9   14 ar   
    21   10   11 ar   
    22   10   81 1    
    23   11   12 ar   
    24   11   71 1    
    25   12   13 ar   
    26   12   82 1    
    27   13   14 ar   
    28   13   15 1    
    29   14   83 1    
    30   15   16 1    
    31   15   84 1    
    32   15   85 1    
    33   16   17 1    
    34   17   18 1    
    35   17   86 1    
    36   17   87 1    
    37   18   19 1    
    38   18   37 1    
    39   18   88 1    
    40   19   20 am   BACKBONE|DICT|INTERRES
    41   19   89 1    
    42   20   21 2    
    43   20   22 1    
    44   22   23 1    
    45   22   24 1    
    46   22   90 1    
    47   23   91 1    
    48   23   92 1    
    49   23   93 1    
    50   24   25 am   BACKBONE|DICT|INTERRES
    51   24   94 1    
    52   25   26 2    
    53   25   27 1    
    54   27   28 1    
    55   27   29 1    
    56   27   95 1    
    57   28   96 1    
    58   28   97 1    
    59   28   98 1    
    60   29   30 am   BACKBONE|DICT|INTERRES
    61   29   99 1    
    62   30   31 2    
    63   30   32 1    
    64   32   33 1    
    65   32   34 1    
    66   32  100 1    
    67   33  101 1    
    68   33  102 1    
    69   33  103 1    
    70   34   35 am   BACKBONE|DICT|INTERRES
    71   34  104 1    
    72   35   36 2    
    73   37   38 2    
    74   37   39 am   BACKBONE|DICT|INTERRES
    75   39   40 1    
    76   39  105 1    
    77   40   41 1    
    78   40   42 1    
    79   40  106 1    
    80   41  107 1    
    81   41  108 1    
    82   41  109 1    
    83   42   43 2    
    84   42   44 am   BACKBONE|DICT|INTERRES
    85   44   45 1    
    86   44  110 1    
    87   45   46 1    
    88   45   47 1    
    89   45  111 1    
    90   46  112 1    
    91   46  113 1    
    92   46  114 1    
    93   47   48 2    
    94   47   49 am   BACKBONE|DICT|INTERRES
    95   49   50 1    
    96   49  115 1    
    97   50   51 1    
    98   50   52 1    
    99   50  116 1    
   100   51  117 1    
   101   51  118 1    
   102   51  119 1    
   103   52   53 2    
   104   52   54 am   BACKBONE|DICT|INTERRES
   105   54   55 1    
   106   54  120 1    
   107   55   56 1    
   108   55   57 1    
   109   55  121 1    
   110   56  122 1    
   111   56  123 1    
   112   56  124 1    
   113   57   58 2    
   114   57   59 am   BACKBONE|DICT|INTERRES
   115   59   60 1    
   116   59  125 1    
   117   60   61 1    
   118   60   62 1    
   119   60  126 1    
   120   61  127 1    
   121   61  128 1    
   122   61  129 1    
   123   62   63 2    
   124   62   64 am   BACKBONE|DICT|INTERRES
   125   64   65 1    
   126   64  130 1    
   127   65   66 1    
   128   65   69 1    
   129   65  131 1    
   130   66   67 am   BACKBONE|DICT|INTERRES
   131   66   68 2    
   132   67  132 1    
   133   67  133 1    
   134   69   70 1    
   135   69  134 1    
   136   69  135 1    
   137   70   71 1    
   138   71  136 1    
   139   71  137 1    
@<TRIPOS>SUBSTRUCTURE
     1 UNK         1 GROUP             0       ****    0 ROOT    
