@<TRIPOS>MOLECULE
3R136
137   139    1
SMALL
USER_CHARGES


@<TRIPOS>ATOM
      1 CA         27.1870   22.3169   -1.4519 C.3       0 UNK        -0.1979 
      2 C          28.1066   23.1786   -2.3042 C.2       0 UNK         0.4864 
      3 O          28.0753   23.0807   -3.5313 O.2       0 UNK        -0.5359 
      4 N          28.9255   24.0217   -1.6613 N.am      1 UNK        -0.4318 
      5 CA         29.8460   24.9735   -2.2982 C.3       1 UNK         0.0824 
      6 C6         30.9529   25.4807   -1.3305 C.3       12 UNK        -0.0944 
      7 S7         30.4474   25.6633    0.4213 S.3       12 UNK        -0.2672 
      8 C8         31.6459   24.5336    1.2016 C.3       12 UNK         0.0333 
      9 C9         31.4966   24.4866    2.7142 C.ar      12 UNK        -0.0807 
     10 C10        32.1722   25.4121    3.5155 C.ar      12 UNK        -0.0894 
     11 C11        32.0701   25.3520    4.9082 C.ar      12 UNK        -0.0804 
     12 C12        31.2529   24.3817    5.4968 C.ar      12 UNK        -0.0824 
     13 C13        30.5721   23.4476    4.7083 C.ar      12 UNK        -0.0762 
     14 C14        30.7189   23.4924    3.3169 C.ar      12 UNK        -0.0782 
     15 C15        29.7158   22.3722    5.3747 C.3       12 UNK         0.0230 
     16 S16        28.0288   22.2344    4.6871 S.3       12 UNK        -0.2608 
     17 C17        27.3952   23.9351    4.8797 C.3       12 UNK        -0.0989 
     18 CA         27.3648   24.6687    3.5128 C.3       5 UNK         0.0716 
     19 N          26.4513   24.0733    2.5340 N.am      5 UNK        -0.4135 
     20 C          25.1149   24.0421    2.5895 C.2       4 UNK         0.5031 
     21 O          24.4404   24.4676    3.5293 O.2       4 UNK        -0.5229 
     22 CA         24.4128   23.4796    1.3402 C.3       4 UNK         0.0329 
     23 CB         23.1942   22.6156    1.7097 C.3       4 UNK        -0.2001 
     24 N          23.9855   24.5630    0.4528 N.am      4 UNK        -0.4303 
     25 C          24.8074   25.4089   -0.1815 C.2       3 UNK         0.5044 
     26 O          26.0419   25.3176   -0.1599 O.2       3 UNK        -0.5152 
     27 CA         24.1310   26.5633   -0.9459 C.3       3 UNK         0.0319 
     28 CB         23.4848   27.5630    0.0296 C.3       3 UNK        -0.2001 
     29 N          25.1281   27.2640   -1.7523 N.am      3 UNK        -0.4354 
     30 C          25.5653   26.8329   -2.9399 C.2       2 UNK         0.4964 
     31 O          24.9772   26.0104   -3.6426 O.2       2 UNK        -0.5047 
     32 CA         26.9610   27.3101   -3.3380 C.3       2 UNK         0.0288 
     33 CB         27.2349   28.7970   -3.0277 C.3       2 UNK        -0.2113 
     34 N          27.8896   26.4393   -2.6234 N.am      2 UNK        -0.4145 
     35 C          29.1254   26.1287   -3.0294 C.2       1 UNK         0.5006 
     36 O          29.6906   26.6851   -3.9731 O.2       1 UNK        -0.5103 
     37 C          27.1641   26.1912    3.6227 C.2       5 UNK         0.5055 
     38 O          26.9110   26.7190    4.7084 O.2       5 UNK        -0.5220 
     39 N          27.2998   26.8665    2.4732 N.am      6 UNK        -0.4450 
     40 CA         27.4397   28.3184    2.3706 C.3       6 UNK         0.0367 
     41 CB         27.4023   28.7106    0.8859 C.3       6 UNK        -0.1929 
     42 C          28.7558   28.8038    3.0027 C.2       6 UNK         0.5070 
     43 O          29.7184   28.0397    3.0942 O.2       6 UNK        -0.5237 
     44 N          28.7999   30.0878    3.3753 N.am      7 UNK        -0.4739 
     45 CA         29.9640   30.7555    3.9669 C.3       7 UNK         0.0276 
     46 CB         29.4788   32.0094    4.7181 C.3       7 UNK        -0.1927 
     47 C          31.0631   31.0682    2.9278 C.2       7 UNK         0.5013 
     48 O          31.4717   32.2238    2.7882 O.2       7 UNK        -0.5193 
     49 N          31.5209   30.0349    2.2087 N.am      8 UNK        -0.4253 
     50 CA         32.5967   30.0843    1.2173 C.3       8 UNK         0.0242 
     51 CB         32.7289   28.7092    0.5431 C.3       8 UNK        -0.2000 
     52 C          33.9146   30.5121    1.8790 C.2       8 UNK         0.4948 
     53 O          34.3843   29.8218    2.7858 O.2       8 UNK        -0.5275 
     54 N          34.4331   31.6823    1.4750 N.am      9 UNK        -0.4246 
     55 CA         35.5638   32.3982    2.0885 C.3       9 UNK         0.0261 
     56 CB         36.8897   31.6572    1.8126 C.3       9 UNK        -0.1959 
     57 C          35.3453   32.6872    3.5909 C.2       9 UNK         0.5033 
     58 O          36.2946   32.6264    4.3758 O.2       9 UNK        -0.5390 
     59 N          34.0786   32.9258    3.9719 N.am      10 UNK        -0.4215 
     60 CA         33.5647   33.0620    5.3410 C.3       10 UNK         0.0240 
     61 CB         34.1249   34.3352    6.0108 C.3       10 UNK        -0.1982 
     62 C          33.7639   31.8032    6.2147 C.2       10 UNK         0.4970 
     63 O          33.6742   31.9089    7.4389 O.2       10 UNK        -0.4916 
     64 N          34.0532   30.6506    5.5888 N.am      11 UNK        -0.4279 
     65 CA         34.5297   29.4153    6.2296 C.3       11 UNK         0.1003 
     66 C          35.8895   29.5771    6.9811 C.2       11 UNK         0.5709 
     67 N          36.7204   30.5563    6.6359 N.am      11 UNK        -0.7358 
     68 O          36.2203   28.7892    7.8643 O.2       11 UNK        -0.4999 
     69 C69        33.4239   28.6895    7.0521 C.3       12 UNK        -0.0954 
     70 S70        32.1592   27.9318    5.9752 S.3       12 UNK        -0.2268 
     71 C71        32.9026   26.2831    5.7776 C.3       12 UNK         0.0203 
     72 H72        26.1500   22.6146   -1.6061 H         1 UNK         0.0888 
     73 H73        27.2876   21.2683   -1.7302 H         1 UNK         0.0888 
     74 H74        27.4141   22.4079   -0.3903 H         1 UNK         0.0888 
     75 H75        28.9122   24.0666   -0.6521 H         1 UNK         0.3017 
     76 H76        30.3559   24.4219   -3.0916 H         1 UNK         0.0873 
     77 H77        31.7876   24.7798   -1.3766 H         1 UNK         0.0745 
     78 H78        31.3767   26.4296   -1.6660 H         1 UNK         0.0745 
     79 H79        31.5239   23.5335    0.7822 H         1 UNK         0.0705 
     80 H80        32.6575   24.8527    0.9449 H         1 UNK         0.0705 
     81 H81        32.7945   26.1684    3.0571 H         1 UNK         0.1334 
     82 H82        31.1712   24.3373    6.5744 H         1 UNK         0.1417 
     83 H83        30.2103   22.7618    2.7026 H         1 UNK         0.1562 
     84 H84        29.6342   22.5539    6.4475 H         1 UNK         0.0748 
     85 H85        30.2169   21.4096    5.2657 H         1 UNK         0.0748 
     86 H86        28.0256   24.4686    5.5938 H         1 UNK         0.0940 
     87 H87        26.4002   23.8992    5.3258 H         1 UNK         0.0940 
     88 H88        28.3536   24.5714    3.0697 H         1 UNK         0.0703 
     89 H89        26.8859   23.7478    1.6837 H         1 UNK         0.3081 
     90 H90        25.1158   22.8461    0.7959 H         1 UNK         0.0719 
     91 H91        22.4214   23.1962    2.2155 H         1 UNK         0.0809 
     92 H92        22.7471   22.1611    0.8253 H         1 UNK         0.0809 
     93 H93        23.4821   21.8043    2.3796 H         1 UNK         0.0809 
     94 H94        22.9908   24.7272    0.3980 H         1 UNK         0.2990 
     95 H95        23.3573   26.1498   -1.5965 H         1 UNK         0.0690 
     96 H96        23.0831   28.4284   -0.4979 H         1 UNK         0.0788 
     97 H97        24.1925   27.9242    0.7764 H         1 UNK         0.0788 
     98 H98        22.6549   27.1053    0.5692 H         1 UNK         0.0788 
     99 H99        25.7108   27.9207   -1.2568 H         1 UNK         0.2993 
    100 H100       27.0657   27.1500   -4.4137 H         1 UNK         0.0949 
    101 H101       26.4633   29.4351   -3.4605 H         1 UNK         0.0767 
    102 H102       27.2744   29.0012   -1.9589 H         1 UNK         0.0767 
    103 H103       28.1876   29.1127   -3.4533 H         1 UNK         0.0767 
    104 H104       27.4891   25.9133   -1.8540 H         1 UNK         0.3013 
    105 H105       27.4905   26.3413    1.6313 H         1 UNK         0.3121 
    106 H106       26.6013   28.7853    2.8918 H         1 UNK         0.0774 
    107 H107       26.4646   28.4090    0.4264 H         1 UNK         0.0815 
    108 H108       27.4912   29.7903    0.7588 H         1 UNK         0.0815 
    109 H109       28.2177   28.2476    0.3272 H         1 UNK         0.0815 
    110 H110       27.9842   30.6643    3.2243 H         1 UNK         0.2987 
    111 H111       30.4098   30.0828    4.7029 H         1 UNK         0.0949 
    112 H112       30.2978   32.4901    5.2516 H         1 UNK         0.0806 
    113 H113       29.0522   32.7484    4.0387 H         1 UNK         0.0806 
    114 H114       28.7214   31.7587    5.4610 H         1 UNK         0.0806 
    115 H115       31.1178   29.1225    2.4111 H         1 UNK         0.3010 
    116 H116       32.3188   30.8157    0.4557 H         1 UNK         0.0829 
    117 H117       31.8084   28.4325    0.0289 H         1 UNK         0.0813 
    118 H118       33.5281   28.7112   -0.1990 H         1 UNK         0.0813 
    119 H119       32.9551   27.9246    1.2662 H         1 UNK         0.0813 
    120 H120       33.9545   32.1827    0.7377 H         1 UNK         0.3038 
    121 H121       35.6189   33.3713    1.5983 H         1 UNK         0.0769 
    122 H122       36.9296   30.6952    2.3247 H         1 UNK         0.0811 
    123 H123       37.7440   32.2425    2.1551 H         1 UNK         0.0811 
    124 H124       37.0293   31.4761    0.7470 H         1 UNK         0.0811 
    125 H125       33.3543   32.8918    3.2596 H         1 UNK         0.3204 
    126 H126       32.4880   33.1941    5.2439 H         1 UNK         0.0748 
    127 H127       33.9729   35.2133    5.3832 H         1 UNK         0.0771 
    128 H128       33.6275   34.5302    6.9617 H         1 UNK         0.0771 
    129 H129       35.1925   34.2496    6.2158 H         1 UNK         0.0771 
    130 H130       34.1123   30.6367    4.5758 H         1 UNK         0.2980 
    131 H131       34.7912   28.7572    5.4005 H         1 UNK         0.0545 
    132 H132       37.6003   30.6448    7.1182 H         1 UNK         0.3459 
    133 H133       36.4845   31.2078    5.8955 H         1 UNK         0.3459 
    134 H134       33.8437   27.9015    7.6789 H         1 UNK         0.0616 
    135 H135       32.9324   29.3772    7.7407 H         1 UNK         0.0616 
    136 H136       33.0499   25.8375    6.7627 H         1 UNK         0.0634 
    137 H137       33.8967   26.3909    5.3411 H         1 UNK         0.0634 
@<TRIPOS>BOND
     1    1    2 1    
     2    1   72 1    
     3    1   73 1    
     4    1   74 1    
     5    2    3 2    
     6    2    4 am   BACKBONE|DICT|INTERRES
     7    4    5 1    
     8    4   75 1    
     9    5    6 1    
    10    5   35 1    
    11    5   76 1    
    12    6    7 1    
    13    6   77 1    
    14    6   78 1    
    15    7    8 1    
    16    8    9 1    
    17    8   79 1    
    18    8   80 1    
    19    9   10 ar   
    20    9   14 ar   
    21   10   11 ar   
    22   10   81 1    
    23   11   12 ar   
    24   11   71 1    
    25   12   13 ar   
    26   12   82 1    
    27   13   14 ar   
    28   13   15 1    
    29   14   83 1    
    30   15   16 1    
    31   15   84 1    
    32   15   85 1    
    33   16   17 1    
    34   17   18 1    
    35   17   86 1    
    36   17   87 1    
    37   18   19 1    
    38   18   37 1    
    39   18   88 1    
    40   19   20 am   BACKBONE|DICT|INTERRES
    41   19   89 1    
    42   20   21 2    
    43   20   22 1    
    44   22   23 1    
    45   22   24 1    
    46   22   90 1    
    47   23   91 1    
    48   23   92 1    
    49   23   93 1    
    50   24   25 am   BACKBONE|DICT|INTERRES
    51   24   94 1    
    52   25   26 2    
    53   25   27 1    
    54   27   28 1    
    55   27   29 1    
    56   27   95 1    
    57   28   96 1    
    58   28   97 1    
    59   28   98 1    
    60   29   30 am   BACKBONE|DICT|INTERRES
    61   29   99 1    
    62   30   31 2    
    63   30   32 1    
    64   32   33 1    
    65   32   34 1    
    66   32  100 1    
    67   33  101 1    
    68   33  102 1    
    69   33  103 1    
    70   34   35 am   BACKBONE|DICT|INTERRES
    71   34  104 1    
    72   35   36 2    
    73   37   38 2    
    74   37   39 am   BACKBONE|DICT|INTERRES
    75   39   40 1    
    76   39  105 1    
    77   40   41 1    
    78   40   42 1    
    79   40  106 1    
    80   41  107 1    
    81   41  108 1    
    82   41  109 1    
    83   42   43 2    
    84   42   44 am   BACKBONE|DICT|INTERRES
    85   44   45 1    
    86   44  110 1    
    87   45   46 1    
    88   45   47 1    
    89   45  111 1    
    90   46  112 1    
    91   46  113 1    
    92   46  114 1    
    93   47   48 2    
    94   47   49 am   BACKBONE|DICT|INTERRES
    95   49   50 1    
    96   49  115 1    
    97   50   51 1    
    98   50   52 1    
    99   50  116 1    
   100   51  117 1    
   101   51  118 1    
   102   51  119 1    
   103   52   53 2    
   104   52   54 am   BACKBONE|DICT|INTERRES
   105   54   55 1    
   106   54  120 1    
   107   55   56 1    
   108   55   57 1    
   109   55  121 1    
   110   56  122 1    
   111   56  123 1    
   112   56  124 1    
   113   57   58 2    
   114   57   59 am   BACKBONE|DICT|INTERRES
   115   59   60 1    
   116   59  125 1    
   117   60   61 1    
   118   60   62 1    
   119   60  126 1    
   120   61  127 1    
   121   61  128 1    
   122   61  129 1    
   123   62   63 2    
   124   62   64 am   BACKBONE|DICT|INTERRES
   125   64   65 1    
   126   64  130 1    
   127   65   66 1    
   128   65   69 1    
   129   65  131 1    
   130   66   67 am   BACKBONE|DICT|INTERRES
   131   66   68 2    
   132   67  132 1    
   133   67  133 1    
   134   69   70 1    
   135   69  134 1    
   136   69  135 1    
   137   70   71 1    
   138   71  136 1    
   139   71  137 1    
@<TRIPOS>SUBSTRUCTURE
     1 UNK         1 GROUP             0       ****    0 ROOT    
