@<TRIPOS>MOLECULE
3R136
137   139    1
SMALL
USER_CHARGES


@<TRIPOS>ATOM
      1 CA         27.4497   19.6771    0.0188 C.3       0 UNK        -0.1979 
      2 C          28.3123   20.8462    0.4708 C.2       0 UNK         0.4864 
      3 O          28.5341   20.9970    1.6718 O.2       0 UNK        -0.5359 
      4 N          28.7737   21.6628   -0.4894 N.am      1 UNK        -0.4318 
      5 CA         29.6226   22.8641   -0.3991 C.3       1 UNK         0.0824 
      6 C6         31.1410   22.5848   -0.2112 C.3       12 UNK        -0.0944 
      7 S7         31.6655   21.8938    1.3980 S.3       12 UNK        -0.2672 
      8 C8         33.0547   22.9795    1.8558 C.3       12 UNK         0.0333 
      9 C9         32.5835   24.3469    2.3280 C.ar      12 UNK        -0.0807 
     10 C10        32.1097   24.5127    3.6312 C.ar      12 UNK        -0.0894 
     11 C11        31.6868   25.7668    4.0830 C.ar      12 UNK        -0.0804 
     12 C12        31.7215   26.8593    3.2099 C.ar      12 UNK        -0.0824 
     13 C13        32.2008   26.7051    1.9043 C.ar      12 UNK        -0.0762 
     14 C14        32.6349   25.4491    1.4722 C.ar      12 UNK        -0.0782 
     15 C15        32.2560   27.8850    0.9466 C.3       12 UNK         0.0230 
     16 S16        30.8580   27.8579   -0.2097 S.3       12 UNK        -0.2608 
     17 C17        29.5109   28.3745    0.8988 C.3       12 UNK        -0.0989 
     18 CA         28.2780   28.8493    0.0942 C.3       5 UNK         0.0716 
     19 N          27.5741   27.7090   -0.4952 N.am      5 UNK        -0.4135 
     20 C          26.6875   27.7472   -1.4974 C.2       4 UNK         0.5031 
     21 O          26.3585   28.7794   -2.0851 O.2       4 UNK        -0.5229 
     22 CA         26.0537   26.4090   -1.9078 C.3       4 UNK         0.0329 
     23 CB         26.9273   25.6926   -2.9507 C.3       4 UNK        -0.2001 
     24 N          25.8451   25.5301   -0.7542 N.am      4 UNK        -0.4303 
     25 C          24.7920   25.6047    0.0730 C.2       3 UNK         0.5044 
     26 O          23.8544   26.3877   -0.0823 O.2       3 UNK        -0.5152 
     27 CA         24.7700   24.6408    1.2744 C.3       3 UNK         0.0319 
     28 CB         24.0403   23.3393    0.9045 C.3       3 UNK        -0.2001 
     29 N          26.1044   24.3143    1.7809 N.am      3 UNK        -0.4354 
     30 C          26.9059   25.1680    2.4349 C.2       2 UNK         0.4964 
     31 O          26.5836   26.3151    2.7401 O.2       2 UNK        -0.5047 
     32 CA         28.3183   24.6621    2.7784 C.3       2 UNK         0.0288 
     33 CB         28.3249   23.9836    4.1571 C.3       2 UNK        -0.2113 
     34 N          28.8650   23.7334    1.7850 N.am      2 UNK        -0.4145 
     35 C          29.0668   23.9986    0.4894 C.2       1 UNK         0.5006 
     36 O          28.7673   25.0748   -0.0298 O.2       1 UNK        -0.5103 
     37 C          27.3418   29.7481    0.9305 C.2       5 UNK         0.5055 
     38 O          27.4983   29.8541    2.1481 O.2       5 UNK        -0.5220 
     39 N          26.4004   30.4187    0.2569 N.am      6 UNK        -0.4450 
     40 CA         25.6073   31.5115    0.8138 C.3       6 UNK         0.0367 
     41 CB         24.4437   31.8368   -0.1374 C.3       6 UNK        -0.1929 
     42 C          26.5117   32.7358    1.0355 C.2       6 UNK         0.5070 
     43 O          27.0376   33.2786    0.0617 O.2       6 UNK        -0.5237 
     44 N          26.6928   33.1187    2.3069 N.am      7 UNK        -0.4739 
     45 CA         27.5495   34.2127    2.7865 C.3       7 UNK         0.0276 
     46 CB         27.0053   35.5814    2.3211 C.3       7 UNK        -0.1927 
     47 C          29.0479   34.0175    2.4637 C.2       7 UNK         0.5013 
     48 O          29.7433   34.9913    2.1667 O.2       7 UNK        -0.5193 
     49 N          29.5265   32.7704    2.5525 N.am      8 UNK        -0.4253 
     50 CA         30.9349   32.3934    2.4362 C.3       8 UNK         0.0242 
     51 CB         31.2399   31.9440    0.9963 C.3       8 UNK        -0.2000 
     52 C          31.2265   31.2886    3.4592 C.2       8 UNK         0.4948 
     53 O          30.3089   30.5583    3.8391 O.2       8 UNK        -0.5275 
     54 N          32.4856   31.1878    3.9012 N.am      9 UNK        -0.4246 
     55 CA         32.8939   30.3092    4.9978 C.3       9 UNK         0.0261 
     56 CB         32.6899   31.0260    6.3484 C.3       9 UNK        -0.1959 
     57 C          34.3297   29.8097    4.7961 C.2       9 UNK         0.5033 
     58 O          35.1921   30.0531    5.6418 O.2       9 UNK        -0.5390 
     59 N          34.5630   29.0781    3.6959 N.am      10 UNK        -0.4215 
     60 CA         35.8242   28.3661    3.4269 C.3       10 UNK         0.0240 
     61 CB         35.8007   27.7807    2.0064 C.3       10 UNK        -0.1982 
     62 C          36.1339   27.2633    4.4616 C.2       10 UNK         0.4970 
     63 O          37.3008   26.9237    4.6580 O.2       10 UNK        -0.4916 
     64 N          35.0848   26.7656    5.1270 N.am      11 UNK        -0.4279 
     65 CA         35.1231   25.9540    6.3492 C.3       11 UNK         0.1003 
     66 C          35.7631   26.6465    7.5919 C.2       11 UNK         0.5709 
     67 N          35.9555   27.9612    7.6148 N.am      11 UNK        -0.7358 
     68 O          36.1038   25.9666    8.5571 O.2       11 UNK        -0.4999 
     69 C69        33.7125   25.3906    6.6825 C.3       12 UNK        -0.0954 
     70 S70        32.3882   26.6587    6.6362 S.3       12 UNK        -0.2268 
     71 C71        31.1615   25.9264    5.5040 C.3       12 UNK         0.0203 
     72 H72        26.4609   19.7440    0.4719 H         1 UNK         0.0888 
     73 H73        27.9035   18.7363    0.3291 H         1 UNK         0.0888 
     74 H74        27.3257   19.6522   -1.0637 H         1 UNK         0.0888 
     75 H75        28.5039   21.4414   -1.4379 H         1 UNK         0.3017 
     76 H76        29.5484   23.2737   -1.4084 H         1 UNK         0.0873 
     77 H77        31.4700   21.8848   -0.9806 H         1 UNK         0.0745 
     78 H78        31.6996   23.5000   -0.4091 H         1 UNK         0.0745 
     79 H79        33.6231   22.5002    2.6542 H         1 UNK         0.0705 
     80 H80        33.7402   23.0728    1.0120 H         1 UNK         0.0705 
     81 H81        32.0666   23.6581    4.2924 H         1 UNK         0.1334 
     82 H82        31.3639   27.8236    3.5441 H         1 UNK         0.1417 
     83 H83        33.0045   25.3320    0.4626 H         1 UNK         0.1562 
     84 H84        33.1821   27.8479    0.3712 H         1 UNK         0.0748 
     85 H85        32.2694   28.8322    1.4867 H         1 UNK         0.0748 
     86 H86        29.8936   29.1661    1.5430 H         1 UNK         0.0940 
     87 H87        29.2484   27.5512    1.5645 H         1 UNK         0.0940 
     88 H88        28.6364   29.4787   -0.7238 H         1 UNK         0.0703 
     89 H89        27.8427   26.7988   -0.1347 H         1 UNK         0.3081 
     90 H90        25.0878   26.6246   -2.3700 H         1 UNK         0.0719 
     91 H91        27.9207   25.4634   -2.5636 H         1 UNK         0.0809 
     92 H92        26.4699   24.7585   -3.2770 H         1 UNK         0.0809 
     93 H93        27.0607   26.3143   -3.8371 H         1 UNK         0.0809 
     94 H94        26.6002   24.8985   -0.5245 H         1 UNK         0.2990 
     95 H95        24.2129   25.1282    2.0776 H         1 UNK         0.0690 
     96 H96        23.9457   22.6783    1.7663 H         1 UNK         0.0788 
     97 H97        24.5599   22.7927    0.1163 H         1 UNK         0.0788 
     98 H98        23.0310   23.5470    0.5459 H         1 UNK         0.0788 
     99 H99        26.4513   23.3840    1.5966 H         1 UNK         0.2993 
    100 H100       28.9823   25.5274    2.8148 H         1 UNK         0.0949 
    101 H101       27.9941   24.6743    4.9339 H         1 UNK         0.0767 
    102 H102       27.6629   23.1170    4.1825 H         1 UNK         0.0767 
    103 H103       29.3247   23.6443    4.4268 H         1 UNK         0.0767 
    104 H104       29.0484   22.7784    2.0849 H         1 UNK         0.3013 
    105 H105       26.3143   30.2379   -0.7389 H         1 UNK         0.3121 
    106 H106       25.1873   31.1881    1.7688 H         1 UNK         0.0774 
    107 H107       24.7982   32.1452   -1.1219 H         1 UNK         0.0815 
    108 H108       23.8336   32.6494    0.2590 H         1 UNK         0.0815 
    109 H109       23.7895   30.9751   -0.2722 H         1 UNK         0.0815 
    110 H110       26.2392   32.5760    3.0301 H         1 UNK         0.2987 
    111 H111       27.4818   34.1934    3.8755 H         1 UNK         0.0949 
    112 H112       27.0986   35.7099    1.2423 H         1 UNK         0.0806 
    113 H113       25.9545   35.7018    2.5841 H         1 UNK         0.0806 
    114 H114       27.5505   36.4002    2.7925 H         1 UNK         0.0806 
    115 H115       28.9132   32.0173    2.8445 H         1 UNK         0.3010 
    116 H116       31.5672   33.2487    2.6853 H         1 UNK         0.0829 
    117 H117       31.1405   32.7772    0.3004 H         1 UNK         0.0813 
    118 H118       32.2587   31.5659    0.9040 H         1 UNK         0.0813 
    119 H119       30.5640   31.1585    0.6618 H         1 UNK         0.0813 
    120 H120       33.2001   31.7988    3.5270 H         1 UNK         0.3038 
    121 H121       32.2663   29.4162    5.0070 H         1 UNK         0.0769 
    122 H122       33.2829   31.9390    6.4138 H         1 UNK         0.0811 
    123 H123       32.9827   30.3834    7.1801 H         1 UNK         0.0811 
    124 H124       31.6444   31.2928    6.5028 H         1 UNK         0.0811 
    125 H125       33.8128   28.9399    3.0371 H         1 UNK         0.3204 
    126 H126       36.6329   29.0982    3.4802 H         1 UNK         0.0748 
    127 H127       36.7683   27.3456    1.7527 H         1 UNK         0.0771 
    128 H128       35.0590   26.9887    1.9083 H         1 UNK         0.0771 
    129 H129       35.5865   28.5457    1.2600 H         1 UNK         0.0771 
    130 H130       34.1633   27.0864    4.8727 H         1 UNK         0.2980 
    131 H131       35.7690   25.1016    6.1313 H         1 UNK         0.0545 
    132 H132       35.6815   28.5543    6.8391 H         1 UNK         0.3459 
    133 H133       36.3758   28.3761    8.4306 H         1 UNK         0.3459 
    134 H134       33.4764   24.5933    5.9803 H         1 UNK         0.0616 
    135 H135       33.6984   24.9110    7.6630 H         1 UNK         0.0616 
    136 H136       30.8403   24.9648    5.9069 H         1 UNK         0.0634 
    137 H137       30.2741   26.5609    5.4909 H         1 UNK         0.0634 
@<TRIPOS>BOND
     1    1    2 1    
     2    1   72 1    
     3    1   73 1    
     4    1   74 1    
     5    2    3 2    
     6    2    4 am   BACKBONE|DICT|INTERRES
     7    4    5 1    
     8    4   75 1    
     9    5    6 1    
    10    5   35 1    
    11    5   76 1    
    12    6    7 1    
    13    6   77 1    
    14    6   78 1    
    15    7    8 1    
    16    8    9 1    
    17    8   79 1    
    18    8   80 1    
    19    9   10 ar   
    20    9   14 ar   
    21   10   11 ar   
    22   10   81 1    
    23   11   12 ar   
    24   11   71 1    
    25   12   13 ar   
    26   12   82 1    
    27   13   14 ar   
    28   13   15 1    
    29   14   83 1    
    30   15   16 1    
    31   15   84 1    
    32   15   85 1    
    33   16   17 1    
    34   17   18 1    
    35   17   86 1    
    36   17   87 1    
    37   18   19 1    
    38   18   37 1    
    39   18   88 1    
    40   19   20 am   BACKBONE|DICT|INTERRES
    41   19   89 1    
    42   20   21 2    
    43   20   22 1    
    44   22   23 1    
    45   22   24 1    
    46   22   90 1    
    47   23   91 1    
    48   23   92 1    
    49   23   93 1    
    50   24   25 am   BACKBONE|DICT|INTERRES
    51   24   94 1    
    52   25   26 2    
    53   25   27 1    
    54   27   28 1    
    55   27   29 1    
    56   27   95 1    
    57   28   96 1    
    58   28   97 1    
    59   28   98 1    
    60   29   30 am   BACKBONE|DICT|INTERRES
    61   29   99 1    
    62   30   31 2    
    63   30   32 1    
    64   32   33 1    
    65   32   34 1    
    66   32  100 1    
    67   33  101 1    
    68   33  102 1    
    69   33  103 1    
    70   34   35 am   BACKBONE|DICT|INTERRES
    71   34  104 1    
    72   35   36 2    
    73   37   38 2    
    74   37   39 am   BACKBONE|DICT|INTERRES
    75   39   40 1    
    76   39  105 1    
    77   40   41 1    
    78   40   42 1    
    79   40  106 1    
    80   41  107 1    
    81   41  108 1    
    82   41  109 1    
    83   42   43 2    
    84   42   44 am   BACKBONE|DICT|INTERRES
    85   44   45 1    
    86   44  110 1    
    87   45   46 1    
    88   45   47 1    
    89   45  111 1    
    90   46  112 1    
    91   46  113 1    
    92   46  114 1    
    93   47   48 2    
    94   47   49 am   BACKBONE|DICT|INTERRES
    95   49   50 1    
    96   49  115 1    
    97   50   51 1    
    98   50   52 1    
    99   50  116 1    
   100   51  117 1    
   101   51  118 1    
   102   51  119 1    
   103   52   53 2    
   104   52   54 am   BACKBONE|DICT|INTERRES
   105   54   55 1    
   106   54  120 1    
   107   55   56 1    
   108   55   57 1    
   109   55  121 1    
   110   56  122 1    
   111   56  123 1    
   112   56  124 1    
   113   57   58 2    
   114   57   59 am   BACKBONE|DICT|INTERRES
   115   59   60 1    
   116   59  125 1    
   117   60   61 1    
   118   60   62 1    
   119   60  126 1    
   120   61  127 1    
   121   61  128 1    
   122   61  129 1    
   123   62   63 2    
   124   62   64 am   BACKBONE|DICT|INTERRES
   125   64   65 1    
   126   64  130 1    
   127   65   66 1    
   128   65   69 1    
   129   65  131 1    
   130   66   67 am   BACKBONE|DICT|INTERRES
   131   66   68 2    
   132   67  132 1    
   133   67  133 1    
   134   69   70 1    
   135   69  134 1    
   136   69  135 1    
   137   70   71 1    
   138   71  136 1    
   139   71  137 1    
@<TRIPOS>SUBSTRUCTURE
     1 UNK         1 GROUP             0       ****    0 ROOT    
