@<TRIPOS>MOLECULE
3R136
137   139    1
SMALL
USER_CHARGES


@<TRIPOS>ATOM
      1 CA         26.8353   18.7797   -0.7166 C.3       0 UNK        -0.1979 
      2 C          27.2720   20.2275   -0.8848 C.2       0 UNK         0.4864 
      3 O          26.6154   20.9851   -1.5996 O.2       0 UNK        -0.5359 
      4 N          28.3777   20.6148   -0.2351 N.am      1 UNK        -0.4318 
      5 CA         28.9284   21.9756   -0.2521 C.3       1 UNK         0.0824 
      6 C6         30.4297   21.9885    0.1354 C.3       12 UNK        -0.0944 
      7 S7         30.7864   21.2590    1.7767 S.3       12 UNK        -0.2672 
      8 C8         32.3858   22.0244    2.2043 C.3       12 UNK         0.0333 
      9 C9         32.2576   23.5258    2.4159 C.ar      12 UNK        -0.0807 
     10 C10        31.6339   24.0247    3.5634 C.ar      12 UNK        -0.0894 
     11 C11        31.4530   25.4001    3.7398 C.ar      12 UNK        -0.0804 
     12 C12        31.8877   26.2742    2.7348 C.ar      12 UNK        -0.0824 
     13 C13        32.5429   25.7903    1.5989 C.ar      12 UNK        -0.0762 
     14 C14        32.7406   24.4154    1.4528 C.ar      12 UNK        -0.0782 
     15 C15        33.0003   26.7552    0.5128 C.3       12 UNK         0.0230 
     16 S16        32.2054   26.4698   -1.1122 S.3       12 UNK        -0.2608 
     17 C17        30.4742   26.0334   -0.7132 C.3       12 UNK        -0.0989 
     18 CA         29.4686   27.2101   -0.7668 C.3       5 UNK         0.0716 
     19 N          28.1135   26.6958   -0.9860 N.am      5 UNK        -0.4135 
     20 C          27.1439   27.3418   -1.6444 C.2       4 UNK         0.5031 
     21 O          27.2792   28.4559   -2.1511 O.2       4 UNK        -0.5229 
     22 CA         25.7925   26.6172   -1.7537 C.3       4 UNK         0.0329 
     23 CB         25.8922   25.4051   -2.6954 C.3       4 UNK        -0.2001 
     24 N          25.2742   26.1824   -0.4556 N.am      4 UNK        -0.4303 
     25 C          24.8309   26.9897    0.5165 C.2       3 UNK         0.5044 
     26 O          24.8231   28.2172    0.4319 O.2       3 UNK        -0.5152 
     27 CA         24.3170   26.3289    1.8116 C.3       3 UNK         0.0319 
     28 CB         22.8592   25.8525    1.6561 C.3       3 UNK        -0.2001 
     29 N          25.1901   25.2673    2.3378 N.am      3 UNK        -0.4354 
     30 C          25.4661   24.0705    1.8017 C.2       2 UNK         0.4964 
     31 O          24.9347   23.6300    0.7798 O.2       2 UNK        -0.5047 
     32 CA         26.5399   23.2396    2.5257 C.3       2 UNK         0.0288 
     33 CB         25.8889   22.2789    3.5332 C.3       2 UNK        -0.2113 
     34 N          27.3814   22.4701    1.6054 N.am      2 UNK        -0.4145 
     35 C          28.1031   22.9742    0.5914 C.2       1 UNK         0.5006 
     36 O          28.1338   24.1736    0.3047 O.2       1 UNK        -0.5103 
     37 C          29.5445   28.0701    0.5127 C.2       5 UNK         0.5055 
     38 O          30.4760   28.8623    0.6533 O.2       5 UNK        -0.5220 
     39 N          28.5815   27.8980    1.4309 N.am      6 UNK        -0.4450 
     40 CA         28.5417   28.4764    2.7781 C.3       6 UNK         0.0367 
     41 CB         27.5476   27.6674    3.6303 C.3       6 UNK        -0.1929 
     42 C          28.2572   29.9935    2.8231 C.2       6 UNK         0.5070 
     43 O          27.3551   30.4345    3.5382 O.2       6 UNK        -0.5237 
     44 N          29.0439   30.7714    2.0750 N.am      7 UNK        -0.4739 
     45 CA         29.1181   32.2288    2.1600 C.3       7 UNK         0.0276 
     46 CB         29.7253   32.7678    0.8540 C.3       7 UNK        -0.1927 
     47 C          29.9436   32.6675    3.3843 C.2       7 UNK         0.5013 
     48 O          30.6732   31.8564    3.9652 O.2       7 UNK        -0.5193 
     49 N          29.8183   33.9521    3.7468 N.am      8 UNK        -0.4253 
     50 CA         30.4705   34.5905    4.8952 C.3       8 UNK         0.0242 
     51 CB         30.1070   36.0853    4.9191 C.3       8 UNK        -0.2000 
     52 C          31.9975   34.3926    4.9014 C.2       8 UNK         0.4948 
     53 O          32.6875   34.9513    4.0465 O.2       8 UNK        -0.5275 
     54 N          32.4713   33.5731    5.8513 N.am      9 UNK        -0.4246 
     55 CA         33.8630   33.1582    6.0694 C.3       9 UNK         0.0261 
     56 CB         34.7441   34.3674    6.4528 C.3       9 UNK        -0.1959 
     57 C          34.4769   32.3203    4.9260 C.2       9 UNK         0.5033 
     58 O          35.7028   32.2050    4.8661 O.2       9 UNK        -0.5390 
     59 N          33.6455   31.7284    4.0538 N.am      10 UNK        -0.4215 
     60 CA         34.1006   30.8614    2.9603 C.3       10 UNK         0.0240 
     61 CB         33.0438   30.8434    1.8469 C.3       10 UNK        -0.1982 
     62 C          34.4207   29.4284    3.4195 C.2       10 UNK         0.4970 
     63 O          35.1986   28.7470    2.7507 O.2       10 UNK        -0.4916 
     64 N          33.8103   28.9921    4.5282 N.am      11 UNK        -0.4279 
     65 CA         34.0052   27.6663    5.1305 C.3       11 UNK         0.1003 
     66 C          35.4161   27.4958    5.7546 C.2       11 UNK         0.5709 
     67 N          35.9826   26.2982    5.6920 N.am      11 UNK        -0.7358 
     68 O          35.9800   28.4235    6.3322 O.2       11 UNK        -0.4999 
     69 C69        32.9004   27.3360    6.1697 C.3       12 UNK        -0.0954 
     70 S70        31.2030   27.5787    5.5407 S.3       12 UNK        -0.2268 
     71 C71        30.7435   25.8955    5.0007 C.3       12 UNK         0.0203 
     72 H72        25.8352   18.7374   -0.2860 H         1 UNK         0.0888 
     73 H73        26.8112   18.2804   -1.6849 H         1 UNK         0.0888 
     74 H74        27.5090   18.2231   -0.0652 H         1 UNK         0.0888 
     75 H75        28.8893   19.9501    0.3292 H         1 UNK         0.3017 
     76 H76        28.8651   22.3370   -1.2811 H         1 UNK         0.0873 
     77 H77        31.0021   21.4308   -0.6074 H         1 UNK         0.0745 
     78 H78        30.8118   23.0082    0.0896 H         1 UNK         0.0745 
     79 H79        33.1126   21.8001    1.4219 H         1 UNK         0.0705 
     80 H80        32.7659   21.5631    3.1169 H         1 UNK         0.0705 
     81 H81        31.2682   23.3336    4.3108 H         1 UNK         0.1334 
     82 H82        31.7259   27.3384    2.8336 H         1 UNK         0.1417 
     83 H83        33.2279   24.0392    0.5634 H         1 UNK         0.1562 
     84 H84        34.0810   26.6668    0.3944 H         1 UNK         0.0748 
     85 H85        32.8219   27.7870    0.8157 H         1 UNK         0.0748 
     86 H86        30.4003   25.5019    0.2349 H         1 UNK         0.0940 
     87 H87        30.1927   25.2910   -1.4621 H         1 UNK         0.0940 
     88 H88        29.7369   27.8522   -1.6087 H         1 UNK         0.0703 
     89 H89        27.9282   25.7713   -0.5994 H         1 UNK         0.3081 
     90 H90        25.0745   27.3195   -2.1826 H         1 UNK         0.0719 
     91 H91        24.9130   24.9579   -2.8673 H         1 UNK         0.0809 
     92 H92        26.2892   25.6968   -3.6688 H         1 UNK         0.0809 
     93 H93        26.5454   24.6287   -2.2939 H         1 UNK         0.0809 
     94 H94        25.2318   25.1814   -0.2800 H         1 UNK         0.2990 
     95 H95        24.3141   27.1079    2.5755 H         1 UNK         0.0690 
     96 H96        22.7530   25.0937    0.8805 H         1 UNK         0.0788 
     97 H97        22.2080   26.6838    1.3826 H         1 UNK         0.0788 
     98 H98        22.4773   25.4351    2.5878 H         1 UNK         0.0788 
     99 H99        25.6704   25.5102    3.1927 H         1 UNK         0.2993 
    100 H100       27.2013   23.9201    3.0662 H         1 UNK         0.0949 
    101 H101       25.2425   21.5537    3.0367 H         1 UNK         0.0767 
    102 H102       26.6400   21.7278    4.0999 H         1 UNK         0.0767 
    103 H103       25.2759   22.8219    4.2541 H         1 UNK         0.0767 
    104 H104       27.4058   21.4715    1.7443 H         1 UNK         0.3013 
    105 H105       27.8324   27.2655    1.1968 H         1 UNK         0.3121 
    106 H106       29.5315   28.3429    3.2163 H         1 UNK         0.0774 
    107 H107       27.6018   27.9679    4.6776 H         1 UNK         0.0815 
    108 H108       26.5213   27.8246    3.2998 H         1 UNK         0.0815 
    109 H109       27.7609   26.5999    3.5895 H         1 UNK         0.0815 
    110 H110       29.7613   30.3022    1.5258 H         1 UNK         0.2987 
    111 H111       28.1069   32.6274    2.2689 H         1 UNK         0.0949 
    112 H112       30.7232   32.3688    0.6756 H         1 UNK         0.0806 
    113 H113       29.1066   32.5046   -0.0042 H         1 UNK         0.0806 
    114 H114       29.8060   33.8553    0.8703 H         1 UNK         0.0806 
    115 H115       29.2209   34.5478    3.1920 H         1 UNK         0.3010 
    116 H116       30.0548   34.1335    5.7957 H         1 UNK         0.0829 
    117 H117       30.5756   36.5868    5.7671 H         1 UNK         0.0813 
    118 H118       30.4398   36.5968    4.0148 H         1 UNK         0.0813 
    119 H119       29.0308   36.2328    5.0122 H         1 UNK         0.0813 
    120 H120       31.7980   33.1418    6.4704 H         1 UNK         0.3038 
    121 H121       33.8381   32.4918    6.9329 H         1 UNK         0.0769 
    122 H122       35.7346   34.0453    6.7767 H         1 UNK         0.0811 
    123 H123       34.3066   34.9336    7.2750 H         1 UNK         0.0811 
    124 H124       34.8847   35.0485    5.6130 H         1 UNK         0.0811 
    125 H125       32.6411   31.8639    4.1461 H         1 UNK         0.3204 
    126 H126       35.0169   31.2808    2.5389 H         1 UNK         0.0748 
    127 H127       33.3765   30.2450    0.9979 H         1 UNK         0.0771 
    128 H128       32.1009   30.4192    2.1928 H         1 UNK         0.0771 
    129 H129       32.8503   31.8497    1.4772 H         1 UNK         0.0771 
    130 H130       33.1880   29.6148    5.0192 H         1 UNK         0.2980 
    131 H131       33.9313   26.9381    4.3229 H         1 UNK         0.0545 
    132 H132       35.5237   25.5274    5.2323 H         1 UNK         0.3459 
    133 H133       36.8916   26.1646    6.1067 H         1 UNK         0.3459 
    134 H134       33.0040   26.3081    6.5217 H         1 UNK         0.0616 
    135 H135       33.0122   27.9693    7.0517 H         1 UNK         0.0616 
    136 H136       30.9223   25.2078    5.8287 H         1 UNK         0.0634 
    137 H137       29.6700   25.8763    4.8162 H         1 UNK         0.0634 
@<TRIPOS>BOND
     1    1    2 1    
     2    1   72 1    
     3    1   73 1    
     4    1   74 1    
     5    2    3 2    
     6    2    4 am   BACKBONE|DICT|INTERRES
     7    4    5 1    
     8    4   75 1    
     9    5    6 1    
    10    5   35 1    
    11    5   76 1    
    12    6    7 1    
    13    6   77 1    
    14    6   78 1    
    15    7    8 1    
    16    8    9 1    
    17    8   79 1    
    18    8   80 1    
    19    9   10 ar   
    20    9   14 ar   
    21   10   11 ar   
    22   10   81 1    
    23   11   12 ar   
    24   11   71 1    
    25   12   13 ar   
    26   12   82 1    
    27   13   14 ar   
    28   13   15 1    
    29   14   83 1    
    30   15   16 1    
    31   15   84 1    
    32   15   85 1    
    33   16   17 1    
    34   17   18 1    
    35   17   86 1    
    36   17   87 1    
    37   18   19 1    
    38   18   37 1    
    39   18   88 1    
    40   19   20 am   BACKBONE|DICT|INTERRES
    41   19   89 1    
    42   20   21 2    
    43   20   22 1    
    44   22   23 1    
    45   22   24 1    
    46   22   90 1    
    47   23   91 1    
    48   23   92 1    
    49   23   93 1    
    50   24   25 am   BACKBONE|DICT|INTERRES
    51   24   94 1    
    52   25   26 2    
    53   25   27 1    
    54   27   28 1    
    55   27   29 1    
    56   27   95 1    
    57   28   96 1    
    58   28   97 1    
    59   28   98 1    
    60   29   30 am   BACKBONE|DICT|INTERRES
    61   29   99 1    
    62   30   31 2    
    63   30   32 1    
    64   32   33 1    
    65   32   34 1    
    66   32  100 1    
    67   33  101 1    
    68   33  102 1    
    69   33  103 1    
    70   34   35 am   BACKBONE|DICT|INTERRES
    71   34  104 1    
    72   35   36 2    
    73   37   38 2    
    74   37   39 am   BACKBONE|DICT|INTERRES
    75   39   40 1    
    76   39  105 1    
    77   40   41 1    
    78   40   42 1    
    79   40  106 1    
    80   41  107 1    
    81   41  108 1    
    82   41  109 1    
    83   42   43 2    
    84   42   44 am   BACKBONE|DICT|INTERRES
    85   44   45 1    
    86   44  110 1    
    87   45   46 1    
    88   45   47 1    
    89   45  111 1    
    90   46  112 1    
    91   46  113 1    
    92   46  114 1    
    93   47   48 2    
    94   47   49 am   BACKBONE|DICT|INTERRES
    95   49   50 1    
    96   49  115 1    
    97   50   51 1    
    98   50   52 1    
    99   50  116 1    
   100   51  117 1    
   101   51  118 1    
   102   51  119 1    
   103   52   53 2    
   104   52   54 am   BACKBONE|DICT|INTERRES
   105   54   55 1    
   106   54  120 1    
   107   55   56 1    
   108   55   57 1    
   109   55  121 1    
   110   56  122 1    
   111   56  123 1    
   112   56  124 1    
   113   57   58 2    
   114   57   59 am   BACKBONE|DICT|INTERRES
   115   59   60 1    
   116   59  125 1    
   117   60   61 1    
   118   60   62 1    
   119   60  126 1    
   120   61  127 1    
   121   61  128 1    
   122   61  129 1    
   123   62   63 2    
   124   62   64 am   BACKBONE|DICT|INTERRES
   125   64   65 1    
   126   64  130 1    
   127   65   66 1    
   128   65   69 1    
   129   65  131 1    
   130   66   67 am   BACKBONE|DICT|INTERRES
   131   66   68 2    
   132   67  132 1    
   133   67  133 1    
   134   69   70 1    
   135   69  134 1    
   136   69  135 1    
   137   70   71 1    
   138   71  136 1    
   139   71  137 1    
@<TRIPOS>SUBSTRUCTURE
     1 UNK         1 GROUP             0       ****    0 ROOT    
