@<TRIPOS>MOLECULE
3R136
137   139    1
SMALL
USER_CHARGES


@<TRIPOS>ATOM
      1 CA         28.5636   28.8682   -1.5371 C.3       0 UNK        -0.1979 
      2 C          28.7125   27.5343   -0.8229 C.2       0 UNK         0.4864 
      3 O          28.1864   27.3674    0.2764 O.2       0 UNK        -0.5359 
      4 N          29.4315   26.5831   -1.4321 N.am      1 UNK        -0.4318 
      5 CA         29.5970   25.2136   -0.9337 C.3       1 UNK         0.0824 
      6 C6         30.7268   24.4840   -1.7102 C.3       12 UNK        -0.0944 
      7 S7         30.9202   22.7051   -1.3443 S.3       12 UNK        -0.2672 
      8 C8         32.2718   22.7112   -0.1253 C.3       12 UNK         0.0333 
      9 C9         31.8361   23.1520    1.2687 C.ar      12 UNK        -0.0807 
     10 C10        32.5978   24.0933    1.9683 C.ar      12 UNK        -0.0894 
     11 C11        32.2839   24.4216    3.2900 C.ar      12 UNK        -0.0804 
     12 C12        31.1859   23.8155    3.9071 C.ar      12 UNK        -0.0824 
     13 C13        30.4054   22.8818    3.2175 C.ar      12 UNK        -0.0762 
     14 C14        30.7353   22.5566    1.8978 C.ar      12 UNK        -0.0782 
     15 C15        29.2540   22.1702    3.9210 C.3       12 UNK         0.0230 
     16 S16        27.6294   22.9205    3.5738 S.3       12 UNK        -0.2608 
     17 C17        27.8067   24.5572    4.3565 C.3       12 UNK        -0.0989 
     18 CA         27.9849   25.6627    3.2823 C.3       5 UNK         0.0716 
     19 N          26.7476   25.9528    2.5430 N.am      5 UNK        -0.4135 
     20 C          25.6632   26.5837    3.0208 C.2       4 UNK         0.5031 
     21 O          25.5224   26.9327    4.1938 O.2       4 UNK        -0.5229 
     22 CA         24.5400   26.8988    2.0208 C.3       4 UNK         0.0329 
     23 CB         24.8330   28.2034    1.2615 C.3       4 UNK        -0.2001 
     24 N          24.2892   25.8215    1.0643 N.am      4 UNK        -0.4303 
     25 C          23.7123   24.6513    1.3601 C.2       3 UNK         0.5044 
     26 O          23.3612   24.3321    2.4965 O.2       3 UNK        -0.5152 
     27 CA         23.4463   23.6760    0.1972 C.3       3 UNK         0.0319 
     28 CB         22.1771   24.0789   -0.5793 C.3       3 UNK        -0.2001 
     29 N          24.5793   23.4525   -0.7125 N.am      3 UNK        -0.4354 
     30 C          25.1913   24.3177   -1.5332 C.2       2 UNK         0.4964 
     31 O          24.8958   25.5100   -1.6419 O.2       2 UNK        -0.5047 
     32 CA         26.3384   23.7471   -2.3811 C.3       2 UNK         0.0288 
     33 CB         26.0017   23.8235   -3.8796 C.3       2 UNK        -0.2113 
     34 N          27.5993   24.4451   -2.1323 N.am      2 UNK        -0.4145 
     35 C          28.2515   24.4563   -0.9600 C.2       1 UNK         0.5006 
     36 O          27.8341   23.9160    0.0651 O.2       1 UNK        -0.5103 
     37 C          28.6235   26.9591    3.8281 C.2       5 UNK         0.5055 
     38 O          28.8897   27.0782    5.0257 O.2       5 UNK        -0.5220 
     39 N          28.8277   27.9179    2.9201 N.am      6 UNK        -0.4450 
     40 CA         29.4155   29.2283    3.1681 C.3       6 UNK         0.0367 
     41 CB         28.2904   30.2552    3.4001 C.3       6 UNK        -0.1929 
     42 C          30.3170   29.5770    1.9774 C.2       6 UNK         0.5070 
     43 O          30.1109   30.5952    1.3150 O.2       6 UNK        -0.5237 
     44 N          31.2803   28.6915    1.6937 N.am      7 UNK        -0.4739 
     45 CA         32.2035   28.7395    0.5562 C.3       7 UNK         0.0276 
     46 CB         32.8212   27.3407    0.3784 C.3       7 UNK        -0.1927 
     47 C          33.2712   29.8433    0.7018 C.2       7 UNK         0.5013 
     48 O          34.4576   29.5355    0.8290 O.2       7 UNK        -0.5193 
     49 N          32.8029   31.0994    0.6770 N.am      8 UNK        -0.4253 
     50 CA         33.4993   32.3690    0.9176 C.3       8 UNK         0.0242 
     51 CB         34.7617   32.5278    0.0471 C.3       8 UNK        -0.2000 
     52 C          33.8106   32.5716    2.4089 C.2       8 UNK         0.4948 
     53 O          34.2677   31.6447    3.0794 O.2       8 UNK        -0.5275 
     54 N          33.5313   33.7856    2.9098 N.am      9 UNK        -0.4246 
     55 CA         33.7485   34.2450    4.2928 C.3       9 UNK         0.0261 
     56 CB         35.2545   34.4801    4.5376 C.3       9 UNK        -0.1959 
     57 C          33.1175   33.3297    5.3659 C.2       9 UNK         0.5033 
     58 O          33.6986   33.1510    6.4381 O.2       9 UNK        -0.5390 
     59 N          31.9668   32.7219    5.0340 N.am      10 UNK        -0.4215 
     60 CA         31.2525   31.6969    5.8090 C.3       10 UNK         0.0240 
     61 CB         30.5992   32.3238    7.0593 C.3       10 UNK        -0.1982 
     62 C          32.1171   30.4582    6.1400 C.2       10 UNK         0.4970 
     63 O          31.9594   29.8810    7.2166 O.2       10 UNK        -0.4916 
     64 N          33.0262   30.0964    5.2212 N.am      11 UNK        -0.4279 
     65 CA         34.0722   29.0703    5.3748 C.3       11 UNK         0.1003 
     66 C          35.2218   29.4711    6.3524 C.2       11 UNK         0.5709 
     67 N          35.3102   30.7080    6.8294 N.am      11 UNK        -0.7358 
     68 O          36.0820   28.6505    6.6642 O.2       11 UNK        -0.4999 
     69 C69        33.5235   27.6400    5.6600 C.3       12 UNK        -0.0954 
     70 S70        32.4293   26.9913    4.3503 S.3       12 UNK        -0.2268 
     71 C71        33.1812   25.3567    4.0872 C.3       12 UNK         0.0203 
     72 H72        28.9002   29.6803   -0.8944 H         1 UNK         0.0888 
     73 H73        29.1413   28.9048   -2.4603 H         1 UNK         0.0888 
     74 H74        27.5164   29.0425   -1.7828 H         1 UNK         0.0888 
     75 H75        29.8539   26.7829   -2.3276 H         1 UNK         0.3017 
     76 H76        29.9028   25.2753    0.1135 H         1 UNK         0.0873 
     77 H77        31.6789   24.9878   -1.5392 H         1 UNK         0.0745 
     78 H78        30.5474   24.5618   -2.7840 H         1 UNK         0.0745 
     79 H79        33.0886   23.3310   -0.4986 H         1 UNK         0.0705 
     80 H80        32.6700   21.6985   -0.0513 H         1 UNK         0.0705 
     81 H81        33.4662   24.5362    1.5000 H         1 UNK         0.1334 
     82 H82        30.9605   24.0532    4.9377 H         1 UNK         0.1417 
     83 H83        30.1491   21.8176    1.3683 H         1 UNK         0.1562 
     84 H84        29.4190   22.1510    4.9995 H         1 UNK         0.0748 
     85 H85        29.2274   21.1261    3.6058 H         1 UNK         0.0748 
     86 H86        28.6515   24.5255    5.0450 H         1 UNK         0.0940 
     87 H87        26.9324   24.7529    4.9788 H         1 UNK         0.0940 
     88 H88        28.6966   25.2937    2.5411 H         1 UNK         0.0703 
     89 H89        26.7762   25.7292    1.5570 H         1 UNK         0.3081 
     90 H90        23.6253   27.0498    2.5983 H         1 UNK         0.0719 
     91 H91        25.6885   28.1012    0.5941 H         1 UNK         0.0809 
     92 H92        23.9774   28.5108    0.6602 H         1 UNK         0.0809 
     93 H93        25.0534   29.0184    1.9524 H         1 UNK         0.0809 
     94 H94        24.5451   25.9808    0.0919 H         1 UNK         0.2990 
     95 H95        23.2489   22.7042    0.6529 H         1 UNK         0.0690 
     96 H96        21.9275   23.3403   -1.3410 H         1 UNK         0.0788 
     97 H97        22.2878   25.0448   -1.0730 H         1 UNK         0.0788 
     98 H98        21.3195   24.1553    0.0906 H         1 UNK         0.0788 
     99 H99        24.9526   22.5135   -0.6800 H         1 UNK         0.2993 
    100 H100       26.4873   22.6969   -2.1200 H         1 UNK         0.0949 
    101 H101       26.7822   23.3642   -4.4867 H         1 UNK         0.0767 
    102 H102       25.0713   23.2969   -4.0972 H         1 UNK         0.0767 
    103 H103       25.8779   24.8546   -4.2141 H         1 UNK         0.0767 
    104 H104       27.9944   24.9529   -2.9092 H         1 UNK         0.3013 
    105 H105       28.5787   27.7248    1.9465 H         1 UNK         0.3121 
    106 H106       30.0523   29.1897    4.0540 H         1 UNK         0.0774 
    107 H107       28.6908   31.2590    3.5437 H         1 UNK         0.0815 
    108 H108       27.6071   30.2965    2.5508 H         1 UNK         0.0815 
    109 H109       27.7064   30.0063    4.2863 H         1 UNK         0.0815 
    110 H110       31.4017   27.9115    2.3268 H         1 UNK         0.2987 
    111 H111       31.6264   28.9639   -0.3434 H         1 UNK         0.0949 
    112 H112       33.4607   27.3036   -0.5043 H         1 UNK         0.0806 
    113 H113       33.4320   27.0601    1.2374 H         1 UNK         0.0806 
    114 H114       32.0514   26.5806    0.2552 H         1 UNK         0.0806 
    115 H115       31.7878   31.1731    0.6531 H         1 UNK         0.3010 
    116 H116       32.7927   33.1424    0.6121 H         1 UNK         0.0829 
    117 H117       34.5455   32.3465   -1.0057 H         1 UNK         0.0813 
    118 H118       35.1621   33.5390    0.1278 H         1 UNK         0.0813 
    119 H119       35.5564   31.8456    0.3505 H         1 UNK         0.0813 
    120 H120       33.1438   34.4790    2.2836 H         1 UNK         0.3038 
    121 H121       33.2434   35.2078    4.3839 H         1 UNK         0.0769 
    122 H122       35.4289   34.9364    5.5129 H         1 UNK         0.0811 
    123 H123       35.6794   35.1489    3.7893 H         1 UNK         0.0811 
    124 H124       35.8164   33.5456    4.5101 H         1 UNK         0.0811 
    125 H125       31.5768   32.9380    4.1271 H         1 UNK         0.3204 
    126 H126       30.4480   31.3364    5.1697 H         1 UNK         0.0748 
    127 H127       29.9571   31.6046    7.5695 H         1 UNK         0.0771 
    128 H128       31.3460   32.6613    7.7788 H         1 UNK         0.0771 
    129 H129       29.9772   33.1792    6.7955 H         1 UNK         0.0771 
    130 H130       33.1548   30.6834    4.4029 H         1 UNK         0.2980 
    131 H131       34.5598   29.0309    4.4000 H         1 UNK         0.0545 
    132 H132       36.0717   30.9361    7.4477 H         1 UNK         0.3459 
    133 H133       34.6294   31.4223    6.5923 H         1 UNK         0.3459 
    134 H134       34.3558   26.9445    5.7773 H         1 UNK         0.0616 
    135 H135       32.9843   27.6058    6.6068 H         1 UNK         0.0616 
    136 H136       34.1450   25.4859    3.5924 H         1 UNK         0.0634 
    137 H137       33.3906   24.8960    5.0539 H         1 UNK         0.0634 
@<TRIPOS>BOND
     1    1    2 1    
     2    1   72 1    
     3    1   73 1    
     4    1   74 1    
     5    2    3 2    
     6    2    4 am   BACKBONE|DICT|INTERRES
     7    4    5 1    
     8    4   75 1    
     9    5    6 1    
    10    5   35 1    
    11    5   76 1    
    12    6    7 1    
    13    6   77 1    
    14    6   78 1    
    15    7    8 1    
    16    8    9 1    
    17    8   79 1    
    18    8   80 1    
    19    9   10 ar   
    20    9   14 ar   
    21   10   11 ar   
    22   10   81 1    
    23   11   12 ar   
    24   11   71 1    
    25   12   13 ar   
    26   12   82 1    
    27   13   14 ar   
    28   13   15 1    
    29   14   83 1    
    30   15   16 1    
    31   15   84 1    
    32   15   85 1    
    33   16   17 1    
    34   17   18 1    
    35   17   86 1    
    36   17   87 1    
    37   18   19 1    
    38   18   37 1    
    39   18   88 1    
    40   19   20 am   BACKBONE|DICT|INTERRES
    41   19   89 1    
    42   20   21 2    
    43   20   22 1    
    44   22   23 1    
    45   22   24 1    
    46   22   90 1    
    47   23   91 1    
    48   23   92 1    
    49   23   93 1    
    50   24   25 am   BACKBONE|DICT|INTERRES
    51   24   94 1    
    52   25   26 2    
    53   25   27 1    
    54   27   28 1    
    55   27   29 1    
    56   27   95 1    
    57   28   96 1    
    58   28   97 1    
    59   28   98 1    
    60   29   30 am   BACKBONE|DICT|INTERRES
    61   29   99 1    
    62   30   31 2    
    63   30   32 1    
    64   32   33 1    
    65   32   34 1    
    66   32  100 1    
    67   33  101 1    
    68   33  102 1    
    69   33  103 1    
    70   34   35 am   BACKBONE|DICT|INTERRES
    71   34  104 1    
    72   35   36 2    
    73   37   38 2    
    74   37   39 am   BACKBONE|DICT|INTERRES
    75   39   40 1    
    76   39  105 1    
    77   40   41 1    
    78   40   42 1    
    79   40  106 1    
    80   41  107 1    
    81   41  108 1    
    82   41  109 1    
    83   42   43 2    
    84   42   44 am   BACKBONE|DICT|INTERRES
    85   44   45 1    
    86   44  110 1    
    87   45   46 1    
    88   45   47 1    
    89   45  111 1    
    90   46  112 1    
    91   46  113 1    
    92   46  114 1    
    93   47   48 2    
    94   47   49 am   BACKBONE|DICT|INTERRES
    95   49   50 1    
    96   49  115 1    
    97   50   51 1    
    98   50   52 1    
    99   50  116 1    
   100   51  117 1    
   101   51  118 1    
   102   51  119 1    
   103   52   53 2    
   104   52   54 am   BACKBONE|DICT|INTERRES
   105   54   55 1    
   106   54  120 1    
   107   55   56 1    
   108   55   57 1    
   109   55  121 1    
   110   56  122 1    
   111   56  123 1    
   112   56  124 1    
   113   57   58 2    
   114   57   59 am   BACKBONE|DICT|INTERRES
   115   59   60 1    
   116   59  125 1    
   117   60   61 1    
   118   60   62 1    
   119   60  126 1    
   120   61  127 1    
   121   61  128 1    
   122   61  129 1    
   123   62   63 2    
   124   62   64 am   BACKBONE|DICT|INTERRES
   125   64   65 1    
   126   64  130 1    
   127   65   66 1    
   128   65   69 1    
   129   65  131 1    
   130   66   67 am   BACKBONE|DICT|INTERRES
   131   66   68 2    
   132   67  132 1    
   133   67  133 1    
   134   69   70 1    
   135   69  134 1    
   136   69  135 1    
   137   70   71 1    
   138   71  136 1    
   139   71  137 1    
@<TRIPOS>SUBSTRUCTURE
     1 UNK         1 GROUP             0       ****    0 ROOT    
