@<TRIPOS>MOLECULE
3R136
137   139    1
SMALL
USER_CHARGES


@<TRIPOS>ATOM
      1 CA         30.4999   22.3197   -4.5447 C.3       0 UNK        -0.1979 
      2 C          30.3596   23.1956   -3.3092 C.2       0 UNK         0.4864 
      3 O          29.8922   24.3313   -3.4110 O.2       0 UNK        -0.5359 
      4 N          30.7399   22.6741   -2.1335 N.am      1 UNK        -0.4318 
      5 CA         30.7065   23.3886   -0.8499 C.3       1 UNK         0.0824 
      6 C6         31.6594   22.7579    0.1961 C.3       12 UNK        -0.0944 
      7 S7         31.1448   21.1061    0.7826 S.3       12 UNK        -0.2672 
      8 C8         31.7978   21.0995    2.4875 C.3       12 UNK         0.0333 
      9 C9         31.1858   22.1826    3.3705 C.ar      12 UNK        -0.0807 
     10 C10        31.9983   23.1620    3.9524 C.ar      12 UNK        -0.0894 
     11 C11        31.4445   24.1493    4.7740 C.ar      12 UNK        -0.0804 
     12 C12        30.0646   24.1633    5.0011 C.ar      12 UNK        -0.0824 
     13 C13        29.2419   23.1914    4.4242 C.ar      12 UNK        -0.0762 
     14 C14        29.8104   22.1983    3.6197 C.ar      12 UNK        -0.0782 
     15 C15        27.7402   23.2013    4.6665 C.3       12 UNK         0.0230 
     16 S16        26.8472   23.6809    3.1567 S.3       12 UNK        -0.2608 
     17 C17        26.1021   25.2801    3.6095 C.3       12 UNK        -0.0989 
     18 CA         27.0978   26.4617    3.7380 C.3       5 UNK         0.0716 
     19 N          27.9928   26.6047    2.5825 N.am      5 UNK        -0.4135 
     20 C          28.9814   27.5094    2.4971 C.2       4 UNK         0.5031 
     21 O          29.3228   28.2252    3.4365 O.2       4 UNK        -0.5229 
     22 CA         29.6602   27.7102    1.1294 C.3       4 UNK         0.0329 
     23 CB         31.0472   27.0482    1.0907 C.3       4 UNK        -0.2001 
     24 N          28.8560   27.2434   -0.0041 N.am      4 UNK        -0.4303 
     25 C          27.6930   27.7770   -0.4052 C.2       3 UNK         0.5044 
     26 O          27.1458   28.7249    0.1584 O.2       3 UNK        -0.5152 
     27 CA         27.0078   27.1140   -1.6125 C.3       3 UNK         0.0319 
     28 CB         27.6036   27.6393   -2.9277 C.3       3 UNK        -0.2001 
     29 N          27.1131   25.6534   -1.5754 N.am      3 UNK        -0.4354 
     30 C          26.4496   24.8749   -0.7064 C.2       2 UNK         0.4964 
     31 O          25.5969   25.2985    0.0736 O.2       2 UNK        -0.5047 
     32 CA         26.8266   23.3803   -0.6745 C.3       2 UNK         0.0288 
     33 CB         25.9514   22.5827   -1.6545 C.3       2 UNK        -0.2113 
     34 N          28.2410   23.1210   -0.9663 N.am      2 UNK        -0.4145 
     35 C          29.2829   23.6414   -0.2976 C.2       1 UNK         0.5006 
     36 O          29.1504   24.3522    0.6961 O.2       1 UNK        -0.5103 
     37 C          26.3104   27.7601    4.0318 C.2       5 UNK         0.5055 
     38 O          26.0583   28.0582    5.2003 O.2       5 UNK        -0.5220 
     39 N          25.9387   28.4998    2.9752 N.am      6 UNK        -0.4450 
     40 CA         25.2989   29.8114    3.0631 C.3       6 UNK         0.0367 
     41 CB         24.2787   29.9675    1.9228 C.3       6 UNK        -0.1929 
     42 C          26.3547   30.9243    3.0138 C.2       6 UNK         0.5070 
     43 O          26.3677   31.7930    3.8869 O.2       6 UNK        -0.5237 
     44 N          27.2417   30.8723    2.0106 N.am      7 UNK        -0.4739 
     45 CA         28.3456   31.8120    1.8050 C.3       7 UNK         0.0276 
     46 CB         28.7332   31.8082    0.3142 C.3       7 UNK        -0.1927 
     47 C          29.5350   31.4849    2.7260 C.2       7 UNK         0.5013 
     48 O          30.6152   31.1414    2.2420 O.2       7 UNK        -0.5193 
     49 N          29.3116   31.6049    4.0427 N.am      8 UNK        -0.4253 
     50 CA         30.2290   31.2283    5.1279 C.3       8 UNK         0.0242 
     51 CB         29.5637   31.5371    6.4780 C.3       8 UNK        -0.2000 
     52 C          31.6336   31.8562    5.0648 C.2       8 UNK         0.4948 
     53 O          32.5704   31.2854    5.6235 O.2       8 UNK        -0.5275 
     54 N          31.7778   32.9802    4.3492 N.am      9 UNK        -0.4246 
     55 CA         33.0583   33.6065    4.0107 C.3       9 UNK         0.0261 
     56 CB         32.7927   34.9300    3.2752 C.3       9 UNK        -0.1959 
     57 C          33.9948   32.7063    3.1782 C.2       9 UNK         0.5033 
     58 O          35.2103   32.8931    3.2489 O.2       9 UNK        -0.5390 
     59 N          33.4355   31.7466    2.4231 N.am      10 UNK        -0.4215 
     60 CA         34.1983   30.7278    1.6978 C.3       10 UNK         0.0240 
     61 CB         33.3197   30.1103    0.5983 C.3       10 UNK        -0.1982 
     62 C          34.7628   29.6370    2.6269 C.2       10 UNK         0.4970 
     63 O          35.8320   29.1011    2.3326 O.2       10 UNK        -0.4916 
     64 N          34.0545   29.3340    3.7233 N.am      11 UNK        -0.4279 
     65 CA         34.5182   28.4300    4.7868 C.3       11 UNK         0.1003 
     66 C          35.5203   29.1321    5.7404 C.2       11 UNK         0.5709 
     67 N          35.2478   30.3594    6.1666 N.am      11 UNK        -0.7358 
     68 O          36.5505   28.5617    6.0909 O.2       11 UNK        -0.4999 
     69 C69        33.3412   27.8169    5.5883 C.3       12 UNK        -0.0954 
     70 S70        32.2633   26.7761    4.5526 S.3       12 UNK        -0.2268 
     71 C71        32.3357   25.1905    5.4343 C.3       12 UNK         0.0203 
     72 H72        30.9108   21.3391   -4.3049 H         1 UNK         0.0888 
     73 H73        29.5277   22.1751   -5.0151 H         1 UNK         0.0888 
     74 H74        31.1609   22.7966   -5.2679 H         1 UNK         0.0888 
     75 H75        31.0966   21.7289   -2.0943 H         1 UNK         0.3017 
     76 H76        31.1042   24.3863   -1.0498 H         1 UNK         0.0873 
     77 H77        32.6643   22.6730   -0.2205 H         1 UNK         0.0745 
     78 H78        31.7567   23.4349    1.0460 H         1 UNK         0.0745 
     79 H79        31.5974   20.1254    2.9355 H         1 UNK         0.0705 
     80 H80        32.8836   21.1993    2.4463 H         1 UNK         0.0705 
     81 H81        33.0645   23.1540    3.7714 H         1 UNK         0.1334 
     82 H82        29.6355   24.9331    5.6275 H         1 UNK         0.1417 
     83 H83        29.1763   21.4473    3.1682 H         1 UNK         0.1562 
     84 H84        27.4805   23.8653    5.4922 H         1 UNK         0.0748 
     85 H85        27.4170   22.2031    4.9652 H         1 UNK         0.0748 
     86 H86        25.5478   25.1470    4.5409 H         1 UNK         0.0940 
     87 H87        25.3516   25.5017    2.8476 H         1 UNK         0.0940 
     88 H88        27.7358   26.2728    4.6032 H         1 UNK         0.0703 
     89 H89        27.8420   25.9730    1.8061 H         1 UNK         0.3081 
     90 H90        29.8042   28.7840    1.0000 H         1 UNK         0.0719 
     91 H91        31.0061   25.9916    1.3541 H         1 UNK         0.0809 
     92 H92        31.5121   27.1398    0.1093 H         1 UNK         0.0809 
     93 H93        31.7147   27.5260    1.8070 H         1 UNK         0.0809 
     94 H94        29.1878   26.4133   -0.4721 H         1 UNK         0.2990 
     95 H95        25.9501   27.3853   -1.5855 H         1 UNK         0.0690 
     96 H96        27.0703   27.2402   -3.7907 H         1 UNK         0.0788 
     97 H97        28.6563   27.3723   -3.0323 H         1 UNK         0.0788 
     98 H98        27.5350   28.7269   -2.9799 H         1 UNK         0.0788 
     99 H99        27.7891   25.2241   -2.1938 H         1 UNK         0.2993 
    100 H100       26.6299   23.0150    0.3344 H         1 UNK         0.0949 
    101 H101       24.8919   22.7396   -1.4466 H         1 UNK         0.0767 
    102 H102       26.1288   22.8796   -2.6891 H         1 UNK         0.0767 
    103 H103       26.1399   21.5119   -1.5739 H         1 UNK         0.0767 
    104 H104       28.4413   22.5487   -1.7728 H         1 UNK         0.3013 
    105 H105       26.2288   28.2050    2.0503 H         1 UNK         0.3121 
    106 H106       24.7592   29.9000    4.0086 H         1 UNK         0.0774 
    107 H107       23.7925   30.9429    1.9670 H         1 UNK         0.0815 
    108 H108       24.7440   29.8794    0.9403 H         1 UNK         0.0815 
    109 H109       23.4955   29.2123    1.9889 H         1 UNK         0.0815 
    110 H110       27.1783   30.1068    1.3417 H         1 UNK         0.2987 
    111 H111       28.0063   32.8196    2.0556 H         1 UNK         0.0949 
    112 H112       29.0769   30.8272   -0.0144 H         1 UNK         0.0806 
    113 H113       27.8897   32.0927   -0.3148 H         1 UNK         0.0806 
    114 H114       29.5381   32.5177    0.1177 H         1 UNK         0.0806 
    115 H115       28.3680   31.8589    4.3173 H         1 UNK         0.3010 
    116 H116       30.3700   30.1476    5.0583 H         1 UNK         0.0829 
    117 H117       28.6236   30.9961    6.5891 H         1 UNK         0.0813 
    118 H118       30.2062   31.2395    7.3082 H         1 UNK         0.0813 
    119 H119       29.3556   32.6018    6.5905 H         1 UNK         0.0813 
    120 H120       30.9518   33.3768    3.9261 H         1 UNK         0.3038 
    121 H121       33.5723   33.8300    4.9479 H         1 UNK         0.0769 
    122 H122       32.2573   34.7708    2.3382 H         1 UNK         0.0811 
    123 H123       33.7285   35.4362    3.0336 H         1 UNK         0.0811 
    124 H124       32.2056   35.6148    3.8874 H         1 UNK         0.0811 
    125 H125       32.4210   31.6507    2.4051 H         1 UNK         0.3204 
    126 H126       35.0467   31.2147    1.2119 H         1 UNK         0.0748 
    127 H127       33.8665   29.3502    0.0387 H         1 UNK         0.0771 
    128 H128       32.4311   29.6357    1.0127 H         1 UNK         0.0771 
    129 H129       32.9896   30.8655   -0.1151 H         1 UNK         0.0771 
    130 H130       33.2098   29.8497    3.9229 H         1 UNK         0.2980 
    131 H131       35.0546   27.6019    4.3188 H         1 UNK         0.0545 
    132 H132       35.8926   30.8280    6.7819 H         1 UNK         0.3459 
    133 H133       34.3591   30.7933    5.9300 H         1 UNK         0.3459 
    134 H134       32.7281   28.6001    6.0369 H         1 UNK         0.0616 
    135 H135       33.7199   27.2173    6.4183 H         1 UNK         0.0616 
    136 H136       33.3701   24.8449    5.4686 H         1 UNK         0.0634 
    137 H137       32.0213   25.3377    6.4687 H         1 UNK         0.0634 
@<TRIPOS>BOND
     1    1    2 1    
     2    1   72 1    
     3    1   73 1    
     4    1   74 1    
     5    2    3 2    
     6    2    4 am   BACKBONE|DICT|INTERRES
     7    4    5 1    
     8    4   75 1    
     9    5    6 1    
    10    5   35 1    
    11    5   76 1    
    12    6    7 1    
    13    6   77 1    
    14    6   78 1    
    15    7    8 1    
    16    8    9 1    
    17    8   79 1    
    18    8   80 1    
    19    9   10 ar   
    20    9   14 ar   
    21   10   11 ar   
    22   10   81 1    
    23   11   12 ar   
    24   11   71 1    
    25   12   13 ar   
    26   12   82 1    
    27   13   14 ar   
    28   13   15 1    
    29   14   83 1    
    30   15   16 1    
    31   15   84 1    
    32   15   85 1    
    33   16   17 1    
    34   17   18 1    
    35   17   86 1    
    36   17   87 1    
    37   18   19 1    
    38   18   37 1    
    39   18   88 1    
    40   19   20 am   BACKBONE|DICT|INTERRES
    41   19   89 1    
    42   20   21 2    
    43   20   22 1    
    44   22   23 1    
    45   22   24 1    
    46   22   90 1    
    47   23   91 1    
    48   23   92 1    
    49   23   93 1    
    50   24   25 am   BACKBONE|DICT|INTERRES
    51   24   94 1    
    52   25   26 2    
    53   25   27 1    
    54   27   28 1    
    55   27   29 1    
    56   27   95 1    
    57   28   96 1    
    58   28   97 1    
    59   28   98 1    
    60   29   30 am   BACKBONE|DICT|INTERRES
    61   29   99 1    
    62   30   31 2    
    63   30   32 1    
    64   32   33 1    
    65   32   34 1    
    66   32  100 1    
    67   33  101 1    
    68   33  102 1    
    69   33  103 1    
    70   34   35 am   BACKBONE|DICT|INTERRES
    71   34  104 1    
    72   35   36 2    
    73   37   38 2    
    74   37   39 am   BACKBONE|DICT|INTERRES
    75   39   40 1    
    76   39  105 1    
    77   40   41 1    
    78   40   42 1    
    79   40  106 1    
    80   41  107 1    
    81   41  108 1    
    82   41  109 1    
    83   42   43 2    
    84   42   44 am   BACKBONE|DICT|INTERRES
    85   44   45 1    
    86   44  110 1    
    87   45   46 1    
    88   45   47 1    
    89   45  111 1    
    90   46  112 1    
    91   46  113 1    
    92   46  114 1    
    93   47   48 2    
    94   47   49 am   BACKBONE|DICT|INTERRES
    95   49   50 1    
    96   49  115 1    
    97   50   51 1    
    98   50   52 1    
    99   50  116 1    
   100   51  117 1    
   101   51  118 1    
   102   51  119 1    
   103   52   53 2    
   104   52   54 am   BACKBONE|DICT|INTERRES
   105   54   55 1    
   106   54  120 1    
   107   55   56 1    
   108   55   57 1    
   109   55  121 1    
   110   56  122 1    
   111   56  123 1    
   112   56  124 1    
   113   57   58 2    
   114   57   59 am   BACKBONE|DICT|INTERRES
   115   59   60 1    
   116   59  125 1    
   117   60   61 1    
   118   60   62 1    
   119   60  126 1    
   120   61  127 1    
   121   61  128 1    
   122   61  129 1    
   123   62   63 2    
   124   62   64 am   BACKBONE|DICT|INTERRES
   125   64   65 1    
   126   64  130 1    
   127   65   66 1    
   128   65   69 1    
   129   65  131 1    
   130   66   67 am   BACKBONE|DICT|INTERRES
   131   66   68 2    
   132   67  132 1    
   133   67  133 1    
   134   69   70 1    
   135   69  134 1    
   136   69  135 1    
   137   70   71 1    
   138   71  136 1    
   139   71  137 1    
@<TRIPOS>SUBSTRUCTURE
     1 UNK         1 GROUP             0       ****    0 ROOT    
