@<TRIPOS>MOLECULE
3R136
137   139    1
SMALL
USER_CHARGES


@<TRIPOS>ATOM
      1 CA         28.1654   24.8334    3.0930 C.3       0 UNK        -0.1979 
      2 C          28.2287   23.9034    1.8923 C.2       0 UNK         0.4864 
      3 O          27.9876   24.3574    0.7731 O.2       0 UNK        -0.5359 
      4 N          28.5099   22.6112    2.1312 N.am      1 UNK        -0.4318 
      5 CA         28.7335   21.5259    1.1564 C.3       1 UNK         0.0824 
      6 C6         30.2081   21.4689    0.6691 C.3       12 UNK        -0.0944 
      7 S7         31.3231   20.9071    2.0027 S.3       12 UNK        -0.2672 
      8 C8         32.6972   22.0991    1.9158 C.3       12 UNK         0.0333 
      9 C9         32.3011   23.4716    2.4383 C.ar      12 UNK        -0.0807 
     10 C10        31.9916   23.6473    3.7903 C.ar      12 UNK        -0.0894 
     11 C11        31.6065   24.8998    4.2770 C.ar      12 UNK        -0.0804 
     12 C12        31.5388   25.9840    3.3939 C.ar      12 UNK        -0.0824 
     13 C13        31.8677   25.8254    2.0444 C.ar      12 UNK        -0.0762 
     14 C14        32.2502   24.5668    1.5731 C.ar      12 UNK        -0.0782 
     15 C15        31.7921   27.0052    1.0887 C.3       12 UNK         0.0230 
     16 S16        30.4313   26.7726   -0.0935 S.3       12 UNK        -0.2608 
     17 C17        30.0016   28.4897   -0.5432 C.3       12 UNK        -0.0989 
     18 CA         28.8373   29.0792    0.2983 C.3       5 UNK         0.0716 
     19 N          27.7292   28.1285    0.4273 N.am      5 UNK        -0.4135 
     20 C          26.4728   28.4118    0.7921 C.2       4 UNK         0.5031 
     21 O          26.0918   29.5411    1.1036 O.2       4 UNK        -0.5229 
     22 CA         25.4986   27.2170    0.8408 C.3       4 UNK         0.0329 
     23 CB         24.0175   27.6389    0.7370 C.3       4 UNK        -0.2001 
     24 N          25.8320   26.1713   -0.1376 N.am      4 UNK        -0.4303 
     25 C          25.8012   26.2640   -1.4777 C.2       3 UNK         0.5044 
     26 O          25.4206   27.2594   -2.0943 O.2       3 UNK        -0.5152 
     27 CA         26.2996   25.0444   -2.2706 C.3       3 UNK         0.0319 
     28 CB         27.7555   25.2582   -2.7156 C.3       3 UNK        -0.2001 
     29 N          26.2241   23.8121   -1.4843 N.am      3 UNK        -0.4354 
     30 C          25.1884   22.9627   -1.4794 C.2       2 UNK         0.4964 
     31 O          24.1916   23.1139   -2.1874 O.2       2 UNK        -0.5047 
     32 CA         25.2322   21.7577   -0.5126 C.3       2 UNK         0.0288 
     33 CB         25.0053   20.4238   -1.2556 C.3       2 UNK        -0.2113 
     34 N          26.4186   21.6847    0.3560 N.am      2 UNK        -0.4145 
     35 C          27.6986   21.4761    0.0050 C.2       1 UNK         0.5006 
     36 O          28.0666   21.2820   -1.1551 O.2       1 UNK        -0.5103 
     37 C          29.3462   29.6345    1.6446 C.2       5 UNK         0.5055 
     38 O          30.0690   30.6308    1.6276 O.2       5 UNK        -0.5220 
     39 N          28.9706   29.0053    2.7705 N.am      6 UNK        -0.4450 
     40 CA         29.4112   29.3118    4.1395 C.3       6 UNK         0.0367 
     41 CB         28.7055   28.3603    5.1191 C.3       6 UNK        -0.1929 
     42 C          29.2292   30.7748    4.5866 C.2       6 UNK         0.5070 
     43 O          29.9761   31.2403    5.4472 O.2       6 UNK        -0.5237 
     44 N          28.2535   31.4764    3.9950 N.am      7 UNK        -0.4739 
     45 CA         28.0018   32.9012    4.2201 C.3       7 UNK         0.0276 
     46 CB         26.5835   33.2362    3.7300 C.3       7 UNK        -0.1927 
     47 C          29.0335   33.8289    3.5474 C.2       7 UNK         0.5013 
     48 O          29.1474   34.9827    3.9636 O.2       7 UNK        -0.5193 
     49 N          29.7400   33.3349    2.5209 N.am      8 UNK        -0.4253 
     50 CA         30.7158   34.0891    1.7313 C.3       8 UNK         0.0242 
     51 CB         30.3458   33.9918    0.2411 C.3       8 UNK        -0.2000 
     52 C          32.1434   33.5774    1.9661 C.2       8 UNK         0.4948 
     53 O          33.0423   34.3873    2.1965 O.2       8 UNK        -0.5275 
     54 N          32.3285   32.2539    1.9062 N.am      9 UNK        -0.4246 
     55 CA         33.5925   31.5630    2.1341 C.3       9 UNK         0.0261 
     56 CB         33.9122   30.6846    0.9110 C.3       9 UNK        -0.1959 
     57 C          33.4143   30.7185    3.3958 C.2       9 UNK         0.5033 
     58 O          32.7328   29.6943    3.3398 O.2       9 UNK        -0.5390 
     59 N          33.9950   31.1724    4.5136 N.am      10 UNK        -0.4215 
     60 CA         33.8253   30.6226    5.8652 C.3       10 UNK         0.0240 
     61 CB         34.2964   31.6757    6.8868 C.3       10 UNK        -0.1982 
     62 C          34.4782   29.2395    6.0933 C.2       10 UNK         0.4970 
     63 O          35.2241   29.0621    7.0589 O.2       10 UNK        -0.4916 
     64 N          34.1512   28.2834    5.2193 N.am      11 UNK        -0.4279 
     65 CA         34.4919   26.8551    5.2834 C.3       11 UNK         0.1003 
     66 C          36.0231   26.5743    5.1984 C.2       11 UNK         0.5709 
     67 N          36.4931   25.4220    5.6597 N.am      11 UNK        -0.7358 
     68 O          36.7923   27.3700    4.6611 O.2       11 UNK        -0.4999 
     69 C69        33.7667   26.1230    6.4557 C.3       12 UNK        -0.0954 
     70 S70        31.9799   26.5024    6.5538 S.3       12 UNK        -0.2268 
     71 C71        31.2273   25.0529    5.7471 C.3       12 UNK         0.0203 
     72 H72        28.7430   25.7339    2.8903 H         1 UNK         0.0888 
     73 H73        27.1347   25.1237    3.2924 H         1 UNK         0.0888 
     74 H74        28.5706   24.3655    3.9896 H         1 UNK         0.0888 
     75 H75        28.6697   22.3350    3.0898 H         1 UNK         0.3017 
     76 H76        28.5451   20.6019    1.7059 H         1 UNK         0.0873 
     77 H77        30.5215   22.4414    0.2856 H         1 UNK         0.0745 
     78 H78        30.3328   20.7602   -0.1515 H         1 UNK         0.0745 
     79 H79        33.5277   21.7206    2.5132 H         1 UNK         0.0705 
     80 H80        33.0604   22.1560    0.8885 H         1 UNK         0.0705 
     81 H81        32.0337   22.7977    4.4583 H         1 UNK         0.1334 
     82 H82        31.2357   26.9539    3.7600 H         1 UNK         0.1417 
     83 H83        32.4891   24.4412    0.5257 H         1 UNK         0.1562 
     84 H84        32.7332   27.1074    0.5467 H         1 UNK         0.0748 
     85 H85        31.6539   27.9328    1.6436 H         1 UNK         0.0748 
     86 H86        29.7028   28.4752   -1.5925 H         1 UNK         0.0940 
     87 H87        30.8916   29.1223   -0.5103 H         1 UNK         0.0940 
     88 H88        28.4513   29.9445   -0.2452 H         1 UNK         0.0703 
     89 H89        27.9620   27.1695    0.2044 H         1 UNK         0.3081 
     90 H90        25.6369   26.7615    1.8222 H         1 UNK         0.0719 
     91 H91        23.3549   26.7743    0.7732 H         1 UNK         0.0809 
     92 H92        23.7397   28.2937    1.5638 H         1 UNK         0.0809 
     93 H93        23.8123   28.1816   -0.1861 H         1 UNK         0.0809 
     94 H94        26.2487   25.3301    0.2474 H         1 UNK         0.2990 
     95 H95        25.6804   24.9532   -3.1654 H         1 UNK         0.0690 
     96 H96        28.4315   25.3300   -1.8629 H         1 UNK         0.0788 
     97 H97        27.8596   26.1769   -3.2947 H         1 UNK         0.0788 
     98 H98        28.1002   24.4370   -3.3442 H         1 UNK         0.0788 
     99 H99        26.9959   23.6437   -0.8465 H         1 UNK         0.2993 
    100 H100       24.3864   21.8996    0.1621 H         1 UNK         0.0949 
    101 H101       25.7776   20.2364   -2.0020 H         1 UNK         0.0767 
    102 H102       24.9938   19.5811   -0.5643 H         1 UNK         0.0767 
    103 H103       24.0475   20.4247   -1.7776 H         1 UNK         0.0767 
    104 H104       26.2401   21.8603    1.3354 H         1 UNK         0.3013 
    105 H105       28.3597   28.2103    2.6688 H         1 UNK         0.3121 
    106 H106       30.4781   29.1029    4.1901 H         1 UNK         0.0774 
    107 H107       27.6223   28.4845    5.0936 H         1 UNK         0.0815 
    108 H108       29.0315   28.5454    6.1439 H         1 UNK         0.0815 
    109 H109       28.9327   27.3178    4.8986 H         1 UNK         0.0815 
    110 H110       27.6827   31.0127    3.3019 H         1 UNK         0.2987 
    111 H111       28.0464   33.0931    5.2946 H         1 UNK         0.0949 
    112 H112       26.4714   33.0513    2.6608 H         1 UNK         0.0806 
    113 H113       25.8321   32.6453    4.2541 H         1 UNK         0.0806 
    114 H114       26.3470   34.2867    3.9058 H         1 UNK         0.0806 
    115 H115       29.6294   32.3535    2.2808 H         1 UNK         0.3010 
    116 H116       30.6975   35.1449    2.0101 H         1 UNK         0.0829 
    117 H117       29.3633   34.4237    0.0505 H         1 UNK         0.0813 
    118 H118       31.0634   34.5344   -0.3760 H         1 UNK         0.0813 
    119 H119       30.3291   32.9584   -0.1082 H         1 UNK         0.0813 
    120 H120       31.5209   31.6451    1.7729 H         1 UNK         0.3038 
    121 H121       34.4138   32.2678    2.2794 H         1 UNK         0.0769 
    122 H122       33.1121   29.9736    0.7003 H         1 UNK         0.0811 
    123 H123       34.8262   30.1113    1.0705 H         1 UNK         0.0811 
    124 H124       34.0596   31.2921    0.0182 H         1 UNK         0.0811 
    125 H125       34.5534   32.0115    4.4490 H         1 UNK         0.3204 
    126 H126       32.7538   30.4779    6.0224 H         1 UNK         0.0748 
    127 H127       35.3634   31.8810    6.7912 H         1 UNK         0.0771 
    128 H128       33.7591   32.6164    6.7642 H         1 UNK         0.0771 
    129 H129       34.1182   31.3387    7.9090 H         1 UNK         0.0771 
    130 H130       33.5572   28.5647    4.4414 H         1 UNK         0.2980 
    131 H131       34.1028   26.4404    4.3546 H         1 UNK         0.0545 
    132 H132       37.4802   25.2321    5.5844 H         1 UNK         0.3459 
    133 H133       35.8828   24.7423    6.0843 H         1 UNK         0.3459 
    134 H134       33.8847   25.0421    6.3683 H         1 UNK         0.0616 
    135 H135       34.2169   26.4036    7.4092 H         1 UNK         0.0616 
    136 H136       30.1431   25.1433    5.8191 H         1 UNK         0.0634 
    137 H137       31.5000   24.1616    6.3141 H         1 UNK         0.0634 
@<TRIPOS>BOND
     1    1    2 1    
     2    1   72 1    
     3    1   73 1    
     4    1   74 1    
     5    2    3 2    
     6    2    4 am   BACKBONE|DICT|INTERRES
     7    4    5 1    
     8    4   75 1    
     9    5    6 1    
    10    5   35 1    
    11    5   76 1    
    12    6    7 1    
    13    6   77 1    
    14    6   78 1    
    15    7    8 1    
    16    8    9 1    
    17    8   79 1    
    18    8   80 1    
    19    9   10 ar   
    20    9   14 ar   
    21   10   11 ar   
    22   10   81 1    
    23   11   12 ar   
    24   11   71 1    
    25   12   13 ar   
    26   12   82 1    
    27   13   14 ar   
    28   13   15 1    
    29   14   83 1    
    30   15   16 1    
    31   15   84 1    
    32   15   85 1    
    33   16   17 1    
    34   17   18 1    
    35   17   86 1    
    36   17   87 1    
    37   18   19 1    
    38   18   37 1    
    39   18   88 1    
    40   19   20 am   BACKBONE|DICT|INTERRES
    41   19   89 1    
    42   20   21 2    
    43   20   22 1    
    44   22   23 1    
    45   22   24 1    
    46   22   90 1    
    47   23   91 1    
    48   23   92 1    
    49   23   93 1    
    50   24   25 am   BACKBONE|DICT|INTERRES
    51   24   94 1    
    52   25   26 2    
    53   25   27 1    
    54   27   28 1    
    55   27   29 1    
    56   27   95 1    
    57   28   96 1    
    58   28   97 1    
    59   28   98 1    
    60   29   30 am   BACKBONE|DICT|INTERRES
    61   29   99 1    
    62   30   31 2    
    63   30   32 1    
    64   32   33 1    
    65   32   34 1    
    66   32  100 1    
    67   33  101 1    
    68   33  102 1    
    69   33  103 1    
    70   34   35 am   BACKBONE|DICT|INTERRES
    71   34  104 1    
    72   35   36 2    
    73   37   38 2    
    74   37   39 am   BACKBONE|DICT|INTERRES
    75   39   40 1    
    76   39  105 1    
    77   40   41 1    
    78   40   42 1    
    79   40  106 1    
    80   41  107 1    
    81   41  108 1    
    82   41  109 1    
    83   42   43 2    
    84   42   44 am   BACKBONE|DICT|INTERRES
    85   44   45 1    
    86   44  110 1    
    87   45   46 1    
    88   45   47 1    
    89   45  111 1    
    90   46  112 1    
    91   46  113 1    
    92   46  114 1    
    93   47   48 2    
    94   47   49 am   BACKBONE|DICT|INTERRES
    95   49   50 1    
    96   49  115 1    
    97   50   51 1    
    98   50   52 1    
    99   50  116 1    
   100   51  117 1    
   101   51  118 1    
   102   51  119 1    
   103   52   53 2    
   104   52   54 am   BACKBONE|DICT|INTERRES
   105   54   55 1    
   106   54  120 1    
   107   55   56 1    
   108   55   57 1    
   109   55  121 1    
   110   56  122 1    
   111   56  123 1    
   112   56  124 1    
   113   57   58 2    
   114   57   59 am   BACKBONE|DICT|INTERRES
   115   59   60 1    
   116   59  125 1    
   117   60   61 1    
   118   60   62 1    
   119   60  126 1    
   120   61  127 1    
   121   61  128 1    
   122   61  129 1    
   123   62   63 2    
   124   62   64 am   BACKBONE|DICT|INTERRES
   125   64   65 1    
   126   64  130 1    
   127   65   66 1    
   128   65   69 1    
   129   65  131 1    
   130   66   67 am   BACKBONE|DICT|INTERRES
   131   66   68 2    
   132   67  132 1    
   133   67  133 1    
   134   69   70 1    
   135   69  134 1    
   136   69  135 1    
   137   70   71 1    
   138   71  136 1    
   139   71  137 1    
@<TRIPOS>SUBSTRUCTURE
     1 UNK         1 GROUP             0       ****    0 ROOT    
