@<TRIPOS>MOLECULE
3R136
137   139    1
SMALL
USER_CHARGES


@<TRIPOS>ATOM
      1 CA         32.7082   24.8356   -0.9582 C.3       0 UNK        -0.1979 
      2 C          33.1127   23.7018   -0.0177 C.2       0 UNK         0.4864 
      3 O          34.2875   23.3388    0.0137 O.2       0 UNK        -0.5359 
      4 N          32.2002   23.1239    0.7776 N.am      1 UNK        -0.4318 
      5 CA         30.7543   23.3647    0.7973 C.3       1 UNK         0.0824 
      6 C6         30.2070   23.3647    2.2548 C.3       12 UNK        -0.0944 
      7 S7         28.4849   23.9586    2.4151 S.3       12 UNK        -0.2672 
      8 C8         28.6677   25.7577    2.2275 C.3       12 UNK         0.0333 
      9 C9         28.5165   26.4809    3.5536 C.ar      12 UNK        -0.0807 
     10 C10        29.6311   27.0326    4.1861 C.ar      12 UNK        -0.0894 
     11 C11        29.4877   27.7602    5.3691 C.ar      12 UNK        -0.0804 
     12 C12        28.2135   27.9502    5.9123 C.ar      12 UNK        -0.0824 
     13 C13        27.0869   27.4024    5.2884 C.ar      12 UNK        -0.0762 
     14 C14        27.2504   26.6445    4.1226 C.ar      12 UNK        -0.0782 
     15 C15        25.6987   27.6419    5.8741 C.3       12 UNK         0.0230 
     16 S16        24.4893   28.2498    4.6468 S.3       12 UNK        -0.2608 
     17 C17        25.2514   29.8082    4.0675 C.3       12 UNK        -0.0989 
     18 CA         26.0401   29.6338    2.7426 C.3       5 UNK         0.0716 
     19 N          25.2457   28.9713    1.6946 N.am      5 UNK        -0.4135 
     20 C          25.7378   28.3846    0.5958 C.2       4 UNK         0.5031 
     21 O          26.9281   28.4274    0.2736 O.2       4 UNK        -0.5229 
     22 CA         24.7109   27.7143   -0.3338 C.3       4 UNK         0.0329 
     23 CB         24.0639   28.7632   -1.2540 C.3       4 UNK        -0.2001 
     24 N          25.3242   26.6739   -1.1617 N.am      4 UNK        -0.4303 
     25 C          25.7767   25.5038   -0.6958 C.2       3 UNK         0.5044 
     26 O          25.6207   25.1224    0.4678 O.2       3 UNK        -0.5152 
     27 CA         26.5381   24.6212   -1.6967 C.3       3 UNK         0.0319 
     28 CB         27.7739   25.3499   -2.2664 C.3       3 UNK        -0.2001 
     29 N          26.9724   23.4077   -1.0139 N.am      3 UNK        -0.4354 
     30 C          27.2718   22.2319   -1.5796 C.2       2 UNK         0.4964 
     31 O          27.1195   21.9859   -2.7776 O.2       2 UNK        -0.5047 
     32 CA         27.8959   21.1829   -0.6338 C.3       2 UNK         0.0288 
     33 CB         28.4258   19.9289   -1.3629 C.3       2 UNK        -0.2113 
     34 N          28.9302   21.7989    0.2121 N.am      2 UNK        -0.4145 
     35 C          30.0515   22.4116   -0.2010 C.2       1 UNK         0.5006 
     36 O          30.5043   22.3042   -1.3425 O.2       1 UNK        -0.5103 
     37 C          26.7284   30.9459    2.3004 C.2       5 UNK         0.5055 
     38 O          27.4403   31.5520    3.1022 O.2       5 UNK        -0.5220 
     39 N          26.5612   31.3379    1.0285 N.am      6 UNK        -0.4450 
     40 CA         27.3897   32.3270    0.3379 C.3       6 UNK         0.0367 
     41 CB         26.7801   32.6261   -1.0407 C.3       6 UNK        -0.1929 
     42 C          28.8549   31.8693    0.1926 C.2       6 UNK         0.5070 
     43 O          29.7473   32.7167    0.1696 O.2       6 UNK        -0.5237 
     44 N          29.0979   30.5483    0.1629 N.am      7 UNK        -0.4739 
     45 CA         30.4252   29.9196    0.1843 C.3       7 UNK         0.0276 
     46 CB         30.3103   28.5007   -0.4039 C.3       7 UNK        -0.1927 
     47 C          31.0581   29.9203    1.5948 C.2       7 UNK         0.5013 
     48 O          31.6156   28.9084    2.0252 O.2       7 UNK        -0.5193 
     49 N          30.9688   31.0629    2.2906 N.am      8 UNK        -0.4253 
     50 CA         31.3759   31.2730    3.6834 C.3       8 UNK         0.0242 
     51 CB         31.0099   32.7038    4.1062 C.3       8 UNK        -0.2000 
     52 C          32.8615   30.9910    3.9649 C.2       8 UNK         0.4948 
     53 O          33.2004   30.5932    5.0799 O.2       8 UNK        -0.5275 
     54 N          33.7132   31.1573    2.9429 N.am      9 UNK        -0.4246 
     55 CA         35.1478   30.8621    2.9759 C.3       9 UNK         0.0261 
     56 CB         35.7809   31.2785    1.6386 C.3       9 UNK        -0.1959 
     57 C          35.4814   29.3924    3.2925 C.2       9 UNK         0.5033 
     58 O          36.5518   29.1325    3.8442 O.2       9 UNK        -0.5390 
     59 N          34.5637   28.4612    2.9852 N.am      10 UNK        -0.4215 
     60 CA         34.7056   27.0338    3.2904 C.3       10 UNK         0.0240 
     61 CB         33.6148   26.2430    2.5542 C.3       10 UNK        -0.1982 
     62 C          34.6938   26.7132    4.7978 C.2       10 UNK         0.4970 
     63 O          35.2017   25.6590    5.1819 O.2       10 UNK        -0.4916 
     64 N          34.1468   27.6196    5.6192 N.am      11 UNK        -0.4279 
     65 CA         34.2002   27.5533    7.0875 C.3       11 UNK         0.1003 
     66 C          35.4977   28.1743    7.6864 C.2       11 UNK         0.5709 
     67 N          36.4171   28.7204    6.8964 N.am      11 UNK        -0.7358 
     68 O          35.6866   28.1440    8.9003 O.2       11 UNK        -0.4999 
     69 C69        32.9240   28.1532    7.7365 C.3       12 UNK        -0.0954 
     70 S70        31.4123   27.2391    7.2797 S.3       12 UNK        -0.2268 
     71 C71        30.7115   28.3614    6.0375 C.3       12 UNK         0.0203 
     72 H72        32.2831   25.6710   -0.4035 H         1 UNK         0.0888 
     73 H73        31.9809   24.4945   -1.6939 H         1 UNK         0.0888 
     74 H74        33.5762   25.2091   -1.5010 H         1 UNK         0.0888 
     75 H75        32.5099   22.3665    1.3696 H         1 UNK         0.3017 
     76 H76        30.5606   24.3618    0.4035 H         1 UNK         0.0873 
     77 H77        30.8316   24.0032    2.8828 H         1 UNK         0.0745 
     78 H78        30.2763   22.3671    2.6924 H         1 UNK         0.0745 
     79 H79        29.6267   25.9999    1.7688 H         1 UNK         0.0705 
     80 H80        27.9063   26.1204    1.5367 H         1 UNK         0.0705 
     81 H81        30.6108   26.9120    3.7491 H         1 UNK         0.1334 
     82 H82        28.1022   28.5283    6.8195 H         1 UNK         0.1417 
     83 H83        26.3862   26.2201    3.6289 H         1 UNK         0.1562 
     84 H84        25.7426   28.3532    6.7004 H         1 UNK         0.0748 
     85 H85        25.3306   26.7052    6.2945 H         1 UNK         0.0748 
     86 H86        25.9006   30.1965    4.8551 H         1 UNK         0.0940 
     87 H87        24.4576   30.5465    3.9406 H         1 UNK         0.0940 
     88 H88        26.8784   28.9706    2.9507 H         1 UNK         0.0703 
     89 H89        24.2546   28.9061    1.8784 H         1 UNK         0.3081 
     90 H90        23.9339   27.2522    0.2792 H         1 UNK         0.0719 
     91 H91        24.8033   29.2598   -1.8842 H         1 UNK         0.0809 
     92 H92        23.3177   28.3104   -1.9074 H         1 UNK         0.0809 
     93 H93        23.5553   29.5364   -0.6766 H         1 UNK         0.0809 
     94 H94        25.5198   26.9207   -2.1205 H         1 UNK         0.2990 
     95 H95        25.8545   24.3572   -2.5062 H         1 UNK         0.0690 
     96 H96        28.3456   24.7041   -2.9333 H         1 UNK         0.0788 
     97 H97        28.4436   25.6827   -1.4719 H         1 UNK         0.0788 
     98 H98        27.4903   26.2302   -2.8439 H         1 UNK         0.0788 
     99 H99        27.0346   23.5113   -0.0080 H         1 UNK         0.2993 
    100 H100       27.0966   20.8605    0.0355 H         1 UNK         0.0949 
    101 H101       29.1795   20.1764   -2.1108 H         1 UNK         0.0767 
    102 H102       28.8681   19.2208   -0.6623 H         1 UNK         0.0767 
    103 H103       27.6171   19.4113   -1.8802 H         1 UNK         0.0767 
    104 H104       28.6524   21.9760    1.1700 H         1 UNK         0.3013 
    105 H105       25.9584   30.7755    0.4471 H         1 UNK         0.3121 
    106 H106       27.3847   33.2460    0.9279 H         1 UNK         0.0774 
    107 H107       25.7641   33.0112   -0.9513 H         1 UNK         0.0815 
    108 H108       26.7496   31.7367   -1.6716 H         1 UNK         0.0815 
    109 H109       27.3653   33.3802   -1.5691 H         1 UNK         0.0815 
    110 H110       28.3097   29.9086    0.2102 H         1 UNK         0.2987 
    111 H111       31.0929   30.4943   -0.4612 H         1 UNK         0.0949 
    112 H112       29.6655   27.8673    0.2054 H         1 UNK         0.0806 
    113 H113       29.8989   28.5207   -1.4131 H         1 UNK         0.0806 
    114 H114       31.2865   28.0180   -0.4623 H         1 UNK         0.0806 
    115 H115       30.5208   31.8447    1.8245 H         1 UNK         0.3010 
    116 H116       30.7881   30.5841    4.2901 H         1 UNK         0.0829 
    117 H117       29.9382   32.8819    4.0100 H         1 UNK         0.0813 
    118 H118       31.2739   32.8827    5.1496 H         1 UNK         0.0813 
    119 H119       31.5305   33.4493    3.5038 H         1 UNK         0.0813 
    120 H120       33.3367   31.4865    2.0659 H         1 UNK         0.3038 
    121 H121       35.5876   31.4706    3.7689 H         1 UNK         0.0769 
    122 H122       35.3588   30.7220    0.8008 H         1 UNK         0.0811 
    123 H123       36.8564   31.0950    1.6425 H         1 UNK         0.0811 
    124 H124       35.6375   32.3416    1.4441 H         1 UNK         0.0811 
    125 H125       33.6857   28.7508    2.5658 H         1 UNK         0.3204 
    126 H126       35.6737   26.7092    2.9029 H         1 UNK         0.0748 
    127 H127       33.6654   26.4153    1.4797 H         1 UNK         0.0771 
    128 H128       33.7286   25.1707    2.7193 H         1 UNK         0.0771 
    129 H129       32.6181   26.5212    2.8906 H         1 UNK         0.0771 
    130 H130       33.7849   28.4838    5.2353 H         1 UNK         0.2980 
    131 H131       34.2334   26.5021    7.3794 H         1 UNK         0.0545 
    132 H132       37.2488   29.1069    7.3131 H         1 UNK         0.3459 
    133 H133       36.3032   28.7472    5.8906 H         1 UNK         0.3459 
    134 H134       32.9955   28.1176    8.8250 H         1 UNK         0.0616 
    135 H135       32.8172   29.2077    7.4761 H         1 UNK         0.0616 
    136 H136       31.4718   28.5651    5.2841 H         1 UNK         0.0634 
    137 H137       30.4624   29.3163    6.5028 H         1 UNK         0.0634 
@<TRIPOS>BOND
     1    1    2 1    
     2    1   72 1    
     3    1   73 1    
     4    1   74 1    
     5    2    3 2    
     6    2    4 am   BACKBONE|DICT|INTERRES
     7    4    5 1    
     8    4   75 1    
     9    5    6 1    
    10    5   35 1    
    11    5   76 1    
    12    6    7 1    
    13    6   77 1    
    14    6   78 1    
    15    7    8 1    
    16    8    9 1    
    17    8   79 1    
    18    8   80 1    
    19    9   10 ar   
    20    9   14 ar   
    21   10   11 ar   
    22   10   81 1    
    23   11   12 ar   
    24   11   71 1    
    25   12   13 ar   
    26   12   82 1    
    27   13   14 ar   
    28   13   15 1    
    29   14   83 1    
    30   15   16 1    
    31   15   84 1    
    32   15   85 1    
    33   16   17 1    
    34   17   18 1    
    35   17   86 1    
    36   17   87 1    
    37   18   19 1    
    38   18   37 1    
    39   18   88 1    
    40   19   20 am   BACKBONE|DICT|INTERRES
    41   19   89 1    
    42   20   21 2    
    43   20   22 1    
    44   22   23 1    
    45   22   24 1    
    46   22   90 1    
    47   23   91 1    
    48   23   92 1    
    49   23   93 1    
    50   24   25 am   BACKBONE|DICT|INTERRES
    51   24   94 1    
    52   25   26 2    
    53   25   27 1    
    54   27   28 1    
    55   27   29 1    
    56   27   95 1    
    57   28   96 1    
    58   28   97 1    
    59   28   98 1    
    60   29   30 am   BACKBONE|DICT|INTERRES
    61   29   99 1    
    62   30   31 2    
    63   30   32 1    
    64   32   33 1    
    65   32   34 1    
    66   32  100 1    
    67   33  101 1    
    68   33  102 1    
    69   33  103 1    
    70   34   35 am   BACKBONE|DICT|INTERRES
    71   34  104 1    
    72   35   36 2    
    73   37   38 2    
    74   37   39 am   BACKBONE|DICT|INTERRES
    75   39   40 1    
    76   39  105 1    
    77   40   41 1    
    78   40   42 1    
    79   40  106 1    
    80   41  107 1    
    81   41  108 1    
    82   41  109 1    
    83   42   43 2    
    84   42   44 am   BACKBONE|DICT|INTERRES
    85   44   45 1    
    86   44  110 1    
    87   45   46 1    
    88   45   47 1    
    89   45  111 1    
    90   46  112 1    
    91   46  113 1    
    92   46  114 1    
    93   47   48 2    
    94   47   49 am   BACKBONE|DICT|INTERRES
    95   49   50 1    
    96   49  115 1    
    97   50   51 1    
    98   50   52 1    
    99   50  116 1    
   100   51  117 1    
   101   51  118 1    
   102   51  119 1    
   103   52   53 2    
   104   52   54 am   BACKBONE|DICT|INTERRES
   105   54   55 1    
   106   54  120 1    
   107   55   56 1    
   108   55   57 1    
   109   55  121 1    
   110   56  122 1    
   111   56  123 1    
   112   56  124 1    
   113   57   58 2    
   114   57   59 am   BACKBONE|DICT|INTERRES
   115   59   60 1    
   116   59  125 1    
   117   60   61 1    
   118   60   62 1    
   119   60  126 1    
   120   61  127 1    
   121   61  128 1    
   122   61  129 1    
   123   62   63 2    
   124   62   64 am   BACKBONE|DICT|INTERRES
   125   64   65 1    
   126   64  130 1    
   127   65   66 1    
   128   65   69 1    
   129   65  131 1    
   130   66   67 am   BACKBONE|DICT|INTERRES
   131   66   68 2    
   132   67  132 1    
   133   67  133 1    
   134   69   70 1    
   135   69  134 1    
   136   69  135 1    
   137   70   71 1    
   138   71  136 1    
   139   71  137 1    
@<TRIPOS>SUBSTRUCTURE
     1 UNK         1 GROUP             0       ****    0 ROOT    
