@<TRIPOS>MOLECULE
3R136
137   139    1
SMALL
USER_CHARGES


@<TRIPOS>ATOM
      1 CA         32.3083   30.1291   -4.1173 C.3       0 UNK        -0.1979 
      2 C          31.3571   29.5606   -3.0747 C.2       0 UNK         0.4864 
      3 O          30.4531   30.2658   -2.6217 O.2       0 UNK        -0.5359 
      4 N          31.5536   28.2926   -2.6872 N.am      1 UNK        -0.4318 
      5 CA         30.6934   27.5876   -1.7337 C.3       1 UNK         0.0824 
      6 C6         31.3951   26.3503   -1.1205 C.3       12 UNK        -0.0944 
      7 S7         30.8713   26.0677    0.6032 S.3       12 UNK        -0.2672 
      8 C8         31.8026   24.5516    0.9638 C.3       12 UNK         0.0333 
      9 C9         31.7495   24.2052    2.4431 C.ar      12 UNK        -0.0807 
     10 C10        32.6615   24.7889    3.3280 C.ar      12 UNK        -0.0894 
     11 C11        32.6536   24.4487    4.6839 C.ar      12 UNK        -0.0804 
     12 C12        31.7226   23.5158    5.1495 C.ar      12 UNK        -0.0824 
     13 C13        30.7936   22.9386    4.2795 C.ar      12 UNK        -0.0762 
     14 C14        30.8128   23.2845    2.9243 C.ar      12 UNK        -0.0782 
     15 C15        29.7874   21.9266    4.8119 C.3       12 UNK         0.0230 
     16 S16        28.0646   22.5120    4.7129 S.3       12 UNK        -0.2608 
     17 C17        28.1216   24.1202    5.5820 C.3       12 UNK        -0.0989 
     18 CA         27.7721   25.2906    4.6250 C.3       5 UNK         0.0716 
     19 N          26.4220   25.1301    4.0685 N.am      5 UNK        -0.4135 
     20 C          25.9886   25.6309    2.9077 C.2       4 UNK         0.5031 
     21 O          26.6669   26.3603    2.1791 O.2       4 UNK        -0.5229 
     22 CA         24.5355   25.3178    2.5263 C.3       4 UNK         0.0329 
     23 CB         23.6386   26.5368    2.7976 C.3       4 UNK        -0.2001 
     24 N          24.4707   24.9783    1.1081 N.am      4 UNK        -0.4303 
     25 C          24.6926   23.7562    0.6045 C.2       3 UNK         0.5044 
     26 O          24.8100   22.7401    1.2905 O.2       3 UNK        -0.5152 
     27 CA         24.8237   23.6534   -0.9281 C.3       3 UNK         0.0319 
     28 CB         23.4630   23.3332   -1.5680 C.3       3 UNK        -0.2001 
     29 N          25.3726   24.8731   -1.5316 N.am      3 UNK        -0.4354 
     30 C          26.6265   25.3081   -1.3398 C.2       2 UNK         0.4964 
     31 O          27.4907   24.6552   -0.7499 O.2       2 UNK        -0.5047 
     32 CA         26.9456   26.7117   -1.8790 C.3       2 UNK         0.0288 
     33 CB         25.9877   27.7671   -1.2917 C.3       2 UNK        -0.2113 
     34 N          28.3112   27.0835   -1.5136 N.am      2 UNK        -0.4145 
     35 C          29.3309   27.2261   -2.3652 C.2       1 UNK         0.5006 
     36 O          29.2363   27.0688   -3.5866 O.2       1 UNK        -0.5103 
     37 C          27.9429   26.6799    5.2842 C.2       5 UNK         0.5055 
     38 O          28.3187   26.7702    6.4538 O.2       5 UNK        -0.5220 
     39 N          27.6337   27.7348    4.5239 N.am      6 UNK        -0.4450 
     40 CA         27.6757   29.1426    4.9022 C.3       6 UNK         0.0367 
     41 CB         26.5453   29.4789    5.8966 C.3       6 UNK        -0.1929 
     42 C          27.5553   29.9379    3.5990 C.2       6 UNK         0.5070 
     43 O          26.4424   30.1657    3.1218 O.2       6 UNK        -0.5237 
     44 N          28.7026   30.2760    3.0064 N.am      7 UNK        -0.4739 
     45 CA         28.8349   30.8927    1.6869 C.3       7 UNK         0.0276 
     46 CB         28.5661   29.8309    0.6017 C.3       7 UNK        -0.1927 
     47 C          30.2281   31.5344    1.5760 C.2       7 UNK         0.5013 
     48 O          30.8968   31.7021    2.6001 O.2       7 UNK        -0.5193 
     49 N          30.6599   31.8812    0.3541 N.am      8 UNK        -0.4253 
     50 CA         31.9778   32.4579    0.0610 C.3       8 UNK         0.0242 
     51 CB         31.9164   33.2244   -1.2734 C.3       8 UNK        -0.2000 
     52 C          33.0845   31.3838    0.0868 C.2       8 UNK         0.4948 
     53 O          33.6934   31.0812   -0.9408 O.2       8 UNK        -0.5275 
     54 N          33.3054   30.8220    1.2755 N.am      9 UNK        -0.4246 
     55 CA         34.2916   29.8022    1.6101 C.3       9 UNK         0.0261 
     56 CB         33.6712   28.4090    1.3870 C.3       9 UNK        -0.1959 
     57 C          34.7160   30.0204    3.0704 C.2       9 UNK         0.5033 
     58 O          34.2334   30.9572    3.7132 O.2       9 UNK        -0.5390 
     59 N          35.5839   29.1421    3.5922 N.am      10 UNK        -0.4215 
     60 CA         36.1027   29.1826    4.9690 C.3       10 UNK         0.0240 
     61 CB         37.0983   28.0276    5.1675 C.3       10 UNK        -0.1982 
     62 C          35.0247   29.1532    6.0730 C.2       10 UNK         0.4970 
     63 O          35.2582   29.6931    7.1551 O.2       10 UNK        -0.4916 
     64 N          33.8738   28.5409    5.7728 N.am      11 UNK        -0.4279 
     65 CA         32.6795   28.5043    6.6290 C.3       11 UNK         0.1003 
     66 C          31.7158   29.7092    6.4142 C.2       11 UNK         0.5709 
     67 N          31.9830   30.6369    5.5027 N.am      11 UNK        -0.7358 
     68 O          30.7061   29.8170    7.1048 O.2       11 UNK        -0.4999 
     69 C69        31.9416   27.1473    6.4896 C.3       12 UNK        -0.0954 
     70 S70        32.9322   25.7615    7.1430 S.3       12 UNK        -0.2268 
     71 C71        33.6770   25.0606    5.6331 C.3       12 UNK         0.0203 
     72 H72        32.8866   30.9468   -3.6880 H         1 UNK         0.0888 
     73 H73        33.0061   29.3772   -4.4851 H         1 UNK         0.0888 
     74 H74        31.7467   30.5159   -4.9671 H         1 UNK         0.0888 
     75 H75        32.2853   27.7456   -3.1168 H         1 UNK         0.3017 
     76 H76        30.5104   28.3023   -0.9315 H         1 UNK         0.0873 
     77 H77        32.4762   26.4978   -1.1018 H         1 UNK         0.0745 
     78 H78        31.2265   25.4492   -1.7145 H         1 UNK         0.0745 
     79 H79        31.4023   23.7323    0.3644 H         1 UNK         0.0705 
     80 H80        32.8415   24.6806    0.6560 H         1 UNK         0.0705 
     81 H81        33.3860   25.4989    2.9535 H         1 UNK         0.1334 
     82 H82        31.7213   23.2431    6.1961 H         1 UNK         0.1417 
     83 H83        30.0995   22.8348    2.2465 H         1 UNK         0.1562 
     84 H84        30.0080   21.6679    5.8488 H         1 UNK         0.0748 
     85 H85        29.8775   21.0005    4.2425 H         1 UNK         0.0748 
     86 H86        29.1084   24.2643    6.0248 H         1 UNK         0.0940 
     87 H87        27.4231   24.0866    6.4201 H         1 UNK         0.0940 
     88 H88        28.4878   25.2589    3.7996 H         1 UNK         0.0703 
     89 H89        25.7909   24.5650    4.6175 H         1 UNK         0.3081 
     90 H90        24.1714   24.4770    3.1210 H         1 UNK         0.0719 
     91 H91        23.6513   26.8026    3.8555 H         1 UNK         0.0809 
     92 H92        23.9674   27.4146    2.2389 H         1 UNK         0.0809 
     93 H93        22.6021   26.3352    2.5266 H         1 UNK         0.0809 
     94 H94        24.4380   25.7555    0.4660 H         1 UNK         0.2990 
     95 H95        25.5067   22.8295   -1.1465 H         1 UNK         0.0690 
     96 H96        23.5548   23.1870   -2.6444 H         1 UNK         0.0788 
     97 H97        22.7368   24.1289   -1.3964 H         1 UNK         0.0788 
     98 H98        23.0444   22.4153   -1.1527 H         1 UNK         0.0788 
     99 H99        24.7287   25.4499   -2.0542 H         1 UNK         0.2993 
    100 H100       26.8280   26.6890   -2.9646 H         1 UNK         0.0949 
    101 H101       26.2711   28.7725   -1.6042 H         1 UNK         0.0767 
    102 H102       24.9619   27.6107   -1.6262 H         1 UNK         0.0767 
    103 H103       25.9849   27.7469   -0.2007 H         1 UNK         0.0767 
    104 H104       28.5065   27.0877   -0.5215 H         1 UNK         0.3013 
    105 H105       27.3321   27.5490    3.5687 H         1 UNK         0.3121 
    106 H106       28.6376   29.3613    5.3694 H         1 UNK         0.0774 
    107 H107       25.5658   29.2019    5.5049 H         1 UNK         0.0815 
    108 H108       26.5229   30.5479    6.1108 H         1 UNK         0.0815 
    109 H109       26.6831   28.9634    6.8470 H         1 UNK         0.0815 
    110 H110       29.5837   30.1261    3.4828 H         1 UNK         0.2987 
    111 H111       28.1039   31.6987    1.5935 H         1 UNK         0.0949 
    112 H112       29.2165   28.9685    0.7392 H         1 UNK         0.0806 
    113 H113       27.5381   29.4734    0.6528 H         1 UNK         0.0806 
    114 H114       28.7119   30.2151   -0.4080 H         1 UNK         0.0806 
    115 H115       30.0886   31.6570   -0.4495 H         1 UNK         0.3010 
    116 H116       32.2203   33.1850    0.8394 H         1 UNK         0.0829 
    117 H117       32.8797   33.6805   -1.5052 H         1 UNK         0.0813 
    118 H118       31.6572   32.5727   -2.1070 H         1 UNK         0.0813 
    119 H119       31.1801   34.0273   -1.2354 H         1 UNK         0.0813 
    120 H120       32.7725   31.1664    2.0716 H         1 UNK         0.3038 
    121 H121       35.1732   29.9241    0.9775 H         1 UNK         0.0769 
    122 H122       33.3178   28.2998    0.3618 H         1 UNK         0.0811 
    123 H123       32.8208   28.2347    2.0478 H         1 UNK         0.0811 
    124 H124       34.3940   27.6115    1.5594 H         1 UNK         0.0811 
    125 H125       35.9434   28.4078    2.9990 H         1 UNK         0.3204 
    126 H126       36.6455   30.1236    5.0803 H         1 UNK         0.0748 
    127 H127       37.5214   28.0447    6.1731 H         1 UNK         0.0771 
    128 H128       36.6226   27.0555    5.0317 H         1 UNK         0.0771 
    129 H129       37.9320   28.0957    4.4683 H         1 UNK         0.0771 
    130 H130       33.7677   28.1458    4.8522 H         1 UNK         0.2980 
    131 H131       33.0010   28.5887    7.6687 H         1 UNK         0.0545 
    132 H132       31.3448   31.4065    5.3826 H         1 UNK         0.3459 
    133 H133       32.8313   30.6126    4.9453 H         1 UNK         0.3459 
    134 H134       31.6585   26.9589    5.4527 H         1 UNK         0.0616 
    135 H135       31.0100   27.1556    7.0581 H         1 UNK         0.0616 
    136 H136       34.2619   25.8327    5.1328 H         1 UNK         0.0634 
    137 H137       34.3845   24.2840    5.9260 H         1 UNK         0.0634 
@<TRIPOS>BOND
     1    1    2 1    
     2    1   72 1    
     3    1   73 1    
     4    1   74 1    
     5    2    3 2    
     6    2    4 am   BACKBONE|DICT|INTERRES
     7    4    5 1    
     8    4   75 1    
     9    5    6 1    
    10    5   35 1    
    11    5   76 1    
    12    6    7 1    
    13    6   77 1    
    14    6   78 1    
    15    7    8 1    
    16    8    9 1    
    17    8   79 1    
    18    8   80 1    
    19    9   10 ar   
    20    9   14 ar   
    21   10   11 ar   
    22   10   81 1    
    23   11   12 ar   
    24   11   71 1    
    25   12   13 ar   
    26   12   82 1    
    27   13   14 ar   
    28   13   15 1    
    29   14   83 1    
    30   15   16 1    
    31   15   84 1    
    32   15   85 1    
    33   16   17 1    
    34   17   18 1    
    35   17   86 1    
    36   17   87 1    
    37   18   19 1    
    38   18   37 1    
    39   18   88 1    
    40   19   20 am   BACKBONE|DICT|INTERRES
    41   19   89 1    
    42   20   21 2    
    43   20   22 1    
    44   22   23 1    
    45   22   24 1    
    46   22   90 1    
    47   23   91 1    
    48   23   92 1    
    49   23   93 1    
    50   24   25 am   BACKBONE|DICT|INTERRES
    51   24   94 1    
    52   25   26 2    
    53   25   27 1    
    54   27   28 1    
    55   27   29 1    
    56   27   95 1    
    57   28   96 1    
    58   28   97 1    
    59   28   98 1    
    60   29   30 am   BACKBONE|DICT|INTERRES
    61   29   99 1    
    62   30   31 2    
    63   30   32 1    
    64   32   33 1    
    65   32   34 1    
    66   32  100 1    
    67   33  101 1    
    68   33  102 1    
    69   33  103 1    
    70   34   35 am   BACKBONE|DICT|INTERRES
    71   34  104 1    
    72   35   36 2    
    73   37   38 2    
    74   37   39 am   BACKBONE|DICT|INTERRES
    75   39   40 1    
    76   39  105 1    
    77   40   41 1    
    78   40   42 1    
    79   40  106 1    
    80   41  107 1    
    81   41  108 1    
    82   41  109 1    
    83   42   43 2    
    84   42   44 am   BACKBONE|DICT|INTERRES
    85   44   45 1    
    86   44  110 1    
    87   45   46 1    
    88   45   47 1    
    89   45  111 1    
    90   46  112 1    
    91   46  113 1    
    92   46  114 1    
    93   47   48 2    
    94   47   49 am   BACKBONE|DICT|INTERRES
    95   49   50 1    
    96   49  115 1    
    97   50   51 1    
    98   50   52 1    
    99   50  116 1    
   100   51  117 1    
   101   51  118 1    
   102   51  119 1    
   103   52   53 2    
   104   52   54 am   BACKBONE|DICT|INTERRES
   105   54   55 1    
   106   54  120 1    
   107   55   56 1    
   108   55   57 1    
   109   55  121 1    
   110   56  122 1    
   111   56  123 1    
   112   56  124 1    
   113   57   58 2    
   114   57   59 am   BACKBONE|DICT|INTERRES
   115   59   60 1    
   116   59  125 1    
   117   60   61 1    
   118   60   62 1    
   119   60  126 1    
   120   61  127 1    
   121   61  128 1    
   122   61  129 1    
   123   62   63 2    
   124   62   64 am   BACKBONE|DICT|INTERRES
   125   64   65 1    
   126   64  130 1    
   127   65   66 1    
   128   65   69 1    
   129   65  131 1    
   130   66   67 am   BACKBONE|DICT|INTERRES
   131   66   68 2    
   132   67  132 1    
   133   67  133 1    
   134   69   70 1    
   135   69  134 1    
   136   69  135 1    
   137   70   71 1    
   138   71  136 1    
   139   71  137 1    
@<TRIPOS>SUBSTRUCTURE
     1 UNK         1 GROUP             0       ****    0 ROOT    
