@<TRIPOS>MOLECULE
3R136
137   139    1
SMALL
USER_CHARGES


@<TRIPOS>ATOM
      1 CA         28.2496   23.1407   -5.5316 C.3       0 UNK        -0.1979 
      2 C          28.5094   23.2230   -4.0345 C.2       0 UNK         0.4864 
      3 O          28.6484   22.1861   -3.3845 O.2       0 UNK        -0.5359 
      4 N          28.5787   24.4473   -3.4916 N.am      1 UNK        -0.4318 
      5 CA         28.7723   24.7695   -2.0742 C.3       1 UNK         0.0824 
      6 C6         30.1325   24.2681   -1.5105 C.3       12 UNK        -0.0944 
      7 S7         30.5744   25.0931    0.0518 S.3       12 UNK        -0.2672 
      8 C8         30.8430   23.6732    1.1608 C.3       12 UNK         0.0333 
      9 C9         31.1686   24.1658    2.5605 C.ar      12 UNK        -0.0807 
     10 C10        32.4488   24.6415    2.8555 C.ar      12 UNK        -0.0894 
     11 C11        32.7255   25.2137    4.1008 C.ar      12 UNK        -0.0804 
     12 C12        31.7104   25.2925    5.0584 C.ar      12 UNK        -0.0824 
     13 C13        30.4268   24.8179    4.7753 C.ar      12 UNK        -0.0762 
     14 C14        30.1728   24.2170    3.5392 C.ar      12 UNK        -0.0782 
     15 C15        29.3031   25.0177    5.7841 C.3       12 UNK         0.0230 
     16 S16        27.9108   25.9978    5.1172 S.3       12 UNK        -0.2608 
     17 C17        28.7280   27.4094    4.2831 C.3       12 UNK        -0.0989 
     18 CA         28.6938   27.2651    2.7358 C.3       5 UNK         0.0716 
     19 N          27.3313   27.1350    2.2011 N.am      5 UNK        -0.4135 
     20 C          26.4014   28.1016    2.1218 C.2       4 UNK         0.5031 
     21 O          26.5874   29.2690    2.4671 O.2       4 UNK        -0.5229 
     22 CA         25.0258   27.7109    1.5497 C.3       4 UNK         0.0329 
     23 CB         24.9403   28.0808    0.0601 C.3       4 UNK        -0.2001 
     24 N          24.7216   26.2882    1.7188 N.am      4 UNK        -0.4303 
     25 C          24.4263   25.7187    2.8970 C.2       3 UNK         0.5044 
     26 O          24.2526   26.3592    3.9345 O.2       3 UNK        -0.5152 
     27 CA         24.3049   24.1825    2.9455 C.3       3 UNK         0.0319 
     28 CB         22.8349   23.7651    3.1188 C.3       3 UNK        -0.2001 
     29 N          24.8661   23.4672    1.7930 N.am      3 UNK        -0.4354 
     30 C          26.1494   23.4747    1.4059 C.2       2 UNK         0.4964 
     31 O          27.0205   24.1544    1.9521 O.2       2 UNK        -0.5047 
     32 CA         26.5241   22.5778    0.2070 C.3       2 UNK         0.0288 
     33 CB         25.3176   22.1548   -0.6638 C.3       2 UNK        -0.2113 
     34 N          27.5689   23.1723   -0.6334 N.am      2 UNK        -0.4145 
     35 C          27.5314   24.3621   -1.2515 C.2       1 UNK         0.5006 
     36 O          26.5703   25.1331   -1.2065 O.2       1 UNK        -0.5103 
     37 C          29.5214   28.3346    1.9882 C.2       5 UNK         0.5055 
     38 O          30.2539   29.1136    2.6026 O.2       5 UNK        -0.5220 
     39 N          29.3591   28.3633    0.6585 N.am      6 UNK        -0.4450 
     40 CA         29.8724   29.3941   -0.2428 C.3       6 UNK         0.0367 
     41 CB         29.2422   29.1965   -1.6307 C.3       6 UNK        -0.1929 
     42 C          31.4041   29.4594   -0.3612 C.2       6 UNK         0.5070 
     43 O          31.9119   30.5223   -0.7169 O.2       6 UNK        -0.5237 
     44 N          32.1058   28.3536   -0.0629 N.am      7 UNK        -0.4739 
     45 CA         33.5535   28.1592   -0.2521 C.3       7 UNK         0.0276 
     46 CB         33.9673   26.8023    0.3348 C.3       7 UNK        -0.1927 
     47 C          34.4578   29.2696    0.3136 C.2       7 UNK         0.5013 
     48 O          35.4653   29.6007   -0.3135 O.2       7 UNK        -0.5193 
     49 N          34.0659   29.8412    1.4573 N.am      8 UNK        -0.4253 
     50 CA         34.6699   31.0429    2.0343 C.3       8 UNK         0.0242 
     51 CB         35.7370   30.6563    3.0764 C.3       8 UNK        -0.2000 
     52 C          33.5880   31.9783    2.5991 C.2       8 UNK         0.4948 
     53 O          33.8672   32.7079    3.5508 O.2       8 UNK        -0.5275 
     54 N          32.3826   31.9392    2.0026 N.am      9 UNK        -0.4246 
     55 CA         31.1774   32.7012    2.3611 C.3       9 UNK         0.0261 
     56 CB         31.3337   34.1731    1.9246 C.3       9 UNK        -0.1959 
     57 C          30.8028   32.5548    3.8506 C.2       9 UNK         0.5033 
     58 O          30.8455   33.5382    4.5928 O.2       9 UNK        -0.5390 
     59 N          30.4694   31.3163    4.2433 N.am      10 UNK        -0.4215 
     60 CA         30.2684   30.8183    5.6076 C.3       10 UNK         0.0240 
     61 CB         29.1822   31.6039    6.3740 C.3       10 UNK        -0.1982 
     62 C          31.6124   30.7448    6.3486 C.2       10 UNK         0.4970 
     63 O          31.9649   31.6686    7.0841 O.2       10 UNK        -0.4916 
     64 N          32.3412   29.6472    6.0991 N.am      11 UNK        -0.4279 
     65 CA         33.6654   29.3232    6.6553 C.3       11 UNK         0.1003 
     66 C          33.7528   29.4594    8.2023 C.2       11 UNK         0.5709 
     67 N          34.8405   30.0155    8.7189 N.am      11 UNK        -0.7358 
     68 O          32.8677   29.0182    8.9334 O.2       11 UNK        -0.4999 
     69 C69        34.1191   27.8974    6.2409 C.3       12 UNK        -0.0954 
     70 S70        34.1052   27.5945    4.4410 S.3       12 UNK        -0.2268 
     71 C71        34.1103   25.7725    4.3949 C.3       12 UNK         0.0203 
     72 H72        27.3285   22.5907   -5.7221 H         1 UNK         0.0888 
     73 H73        28.1557   24.1272   -5.9854 H         1 UNK         0.0888 
     74 H74        29.0678   22.6172   -6.0255 H         1 UNK         0.0888 
     75 H75        28.4292   25.2485   -4.0895 H         1 UNK         0.3017 
     76 H76        28.7995   25.8596   -2.0417 H         1 UNK         0.0873 
     77 H77        30.1569   23.1839   -1.3941 H         1 UNK         0.0745 
     78 H78        30.9263   24.5001   -2.2222 H         1 UNK         0.0745 
     79 H79        29.9512   23.0449    1.1753 H         1 UNK         0.0705 
     80 H80        31.6598   23.0580    0.7803 H         1 UNK         0.0705 
     81 H81        33.2192   24.5940    2.0990 H         1 UNK         0.1334 
     82 H82        31.9099   25.7522    6.0150 H         1 UNK         0.1417 
     83 H83        29.1746   23.8680    3.3126 H         1 UNK         0.1562 
     84 H84        29.6732   25.5131    6.6830 H         1 UNK         0.0748 
     85 H85        28.9299   24.0433    6.1019 H         1 UNK         0.0748 
     86 H86        29.7539   27.4943    4.6438 H         1 UNK         0.0940 
     87 H87        28.2209   28.3265    4.5866 H         1 UNK         0.0940 
     88 H88        29.1809   26.3302    2.4766 H         1 UNK         0.0703 
     89 H89        27.0676   26.1887    1.9440 H         1 UNK         0.3081 
     90 H90        24.2699   28.2886    2.0862 H         1 UNK         0.0719 
     91 H91        25.6854   27.5506   -0.5335 H         1 UNK         0.0809 
     92 H92        23.9572   27.8515   -0.3513 H         1 UNK         0.0809 
     93 H93        25.1106   29.1485   -0.0855 H         1 UNK         0.0809 
     94 H94        24.8486   25.6922    0.9123 H         1 UNK         0.2990 
     95 H95        24.8585   23.8546    3.8279 H         1 UNK         0.0690 
     96 H96        22.7409   22.6888    3.2650 H         1 UNK         0.0788 
     97 H97        22.2327   24.0422    2.2526 H         1 UNK         0.0788 
     98 H98        22.3908   24.2465    3.9914 H         1 UNK         0.0788 
     99 H99        24.2212   22.8940    1.2681 H         1 UNK         0.2993 
    100 H100       26.9584   21.6737    0.6361 H         1 UNK         0.0949 
    101 H101       24.7724   23.0161   -1.0525 H         1 UNK         0.0767 
    102 H102       25.6439   21.5620   -1.5188 H         1 UNK         0.0767 
    103 H103       24.6149   21.5360   -0.1047 H         1 UNK         0.0767 
    104 H104       28.3975   22.6101   -0.7638 H         1 UNK         0.3013 
    105 H105       28.7520   27.6698    0.2475 H         1 UNK         0.3121 
    106 H106       29.5396   30.3587    0.1462 H         1 UNK         0.0774 
    107 H107       29.5364   28.2453   -2.0754 H         1 UNK         0.0815 
    108 H108       29.5553   29.9852   -2.3166 H         1 UNK         0.0815 
    109 H109       28.1533   29.2264   -1.5835 H         1 UNK         0.0815 
    110 H110       31.5838   27.5387    0.2300 H         1 UNK         0.2987 
    111 H111       33.7266   28.1294   -1.3298 H         1 UNK         0.0949 
    112 H112       33.7724   26.7630    1.4061 H         1 UNK         0.0806 
    113 H113       33.4352   25.9794   -0.1416 H         1 UNK         0.0806 
    114 H114       35.0334   26.6206    0.1914 H         1 UNK         0.0806 
    115 H115       33.2388   29.4828    1.9161 H         1 UNK         0.3010 
    116 H116       35.1631   31.6124    1.2435 H         1 UNK         0.0829 
    117 H117       36.2888   31.5343    3.4142 H         1 UNK         0.0813 
    118 H118       35.2894   30.1980    3.9567 H         1 UNK         0.0813 
    119 H119       36.4638   29.9565    2.6641 H         1 UNK         0.0813 
    120 H120       32.2901   31.3494    1.1822 H         1 UNK         0.3038 
    121 H121       30.3537   32.2732    1.7872 H         1 UNK         0.0769 
    122 H122       32.1520   34.6666    2.4502 H         1 UNK         0.0811 
    123 H123       30.4251   34.7399    2.1312 H         1 UNK         0.0811 
    124 H124       31.5280   34.2505    0.8549 H         1 UNK         0.0811 
    125 H125       30.4601   30.5820    3.5324 H         1 UNK         0.3204 
    126 H126       29.9001   29.7980    5.5059 H         1 UNK         0.0748 
    127 H127       28.9744   31.1321    7.3349 H         1 UNK         0.0771 
    128 H128       29.4791   32.6319    6.5817 H         1 UNK         0.0771 
    129 H129       28.2464   31.6310    5.8157 H         1 UNK         0.0771 
    130 H130       31.9744   28.9590    5.4595 H         1 UNK         0.2980 
    131 H131       34.3597   30.0418    6.2166 H         1 UNK         0.0545 
    132 H132       35.5786   30.3667    8.1288 H         1 UNK         0.3459 
    133 H133       34.9204   30.0948    9.7206 H         1 UNK         0.3459 
    134 H134       33.4925   27.1514    6.7304 H         1 UNK         0.0616 
    135 H135       35.1363   27.7113    6.5909 H         1 UNK         0.0616 
    136 H136       34.8185   25.4531    3.6288 H         1 UNK         0.0634 
    137 H137       34.4823   25.3669    5.3368 H         1 UNK         0.0634 
@<TRIPOS>BOND
     1    1    2 1    
     2    1   72 1    
     3    1   73 1    
     4    1   74 1    
     5    2    3 2    
     6    2    4 am   BACKBONE|DICT|INTERRES
     7    4    5 1    
     8    4   75 1    
     9    5    6 1    
    10    5   35 1    
    11    5   76 1    
    12    6    7 1    
    13    6   77 1    
    14    6   78 1    
    15    7    8 1    
    16    8    9 1    
    17    8   79 1    
    18    8   80 1    
    19    9   10 ar   
    20    9   14 ar   
    21   10   11 ar   
    22   10   81 1    
    23   11   12 ar   
    24   11   71 1    
    25   12   13 ar   
    26   12   82 1    
    27   13   14 ar   
    28   13   15 1    
    29   14   83 1    
    30   15   16 1    
    31   15   84 1    
    32   15   85 1    
    33   16   17 1    
    34   17   18 1    
    35   17   86 1    
    36   17   87 1    
    37   18   19 1    
    38   18   37 1    
    39   18   88 1    
    40   19   20 am   BACKBONE|DICT|INTERRES
    41   19   89 1    
    42   20   21 2    
    43   20   22 1    
    44   22   23 1    
    45   22   24 1    
    46   22   90 1    
    47   23   91 1    
    48   23   92 1    
    49   23   93 1    
    50   24   25 am   BACKBONE|DICT|INTERRES
    51   24   94 1    
    52   25   26 2    
    53   25   27 1    
    54   27   28 1    
    55   27   29 1    
    56   27   95 1    
    57   28   96 1    
    58   28   97 1    
    59   28   98 1    
    60   29   30 am   BACKBONE|DICT|INTERRES
    61   29   99 1    
    62   30   31 2    
    63   30   32 1    
    64   32   33 1    
    65   32   34 1    
    66   32  100 1    
    67   33  101 1    
    68   33  102 1    
    69   33  103 1    
    70   34   35 am   BACKBONE|DICT|INTERRES
    71   34  104 1    
    72   35   36 2    
    73   37   38 2    
    74   37   39 am   BACKBONE|DICT|INTERRES
    75   39   40 1    
    76   39  105 1    
    77   40   41 1    
    78   40   42 1    
    79   40  106 1    
    80   41  107 1    
    81   41  108 1    
    82   41  109 1    
    83   42   43 2    
    84   42   44 am   BACKBONE|DICT|INTERRES
    85   44   45 1    
    86   44  110 1    
    87   45   46 1    
    88   45   47 1    
    89   45  111 1    
    90   46  112 1    
    91   46  113 1    
    92   46  114 1    
    93   47   48 2    
    94   47   49 am   BACKBONE|DICT|INTERRES
    95   49   50 1    
    96   49  115 1    
    97   50   51 1    
    98   50   52 1    
    99   50  116 1    
   100   51  117 1    
   101   51  118 1    
   102   51  119 1    
   103   52   53 2    
   104   52   54 am   BACKBONE|DICT|INTERRES
   105   54   55 1    
   106   54  120 1    
   107   55   56 1    
   108   55   57 1    
   109   55  121 1    
   110   56  122 1    
   111   56  123 1    
   112   56  124 1    
   113   57   58 2    
   114   57   59 am   BACKBONE|DICT|INTERRES
   115   59   60 1    
   116   59  125 1    
   117   60   61 1    
   118   60   62 1    
   119   60  126 1    
   120   61  127 1    
   121   61  128 1    
   122   61  129 1    
   123   62   63 2    
   124   62   64 am   BACKBONE|DICT|INTERRES
   125   64   65 1    
   126   64  130 1    
   127   65   66 1    
   128   65   69 1    
   129   65  131 1    
   130   66   67 am   BACKBONE|DICT|INTERRES
   131   66   68 2    
   132   67  132 1    
   133   67  133 1    
   134   69   70 1    
   135   69  134 1    
   136   69  135 1    
   137   70   71 1    
   138   71  136 1    
   139   71  137 1    
@<TRIPOS>SUBSTRUCTURE
     1 UNK         1 GROUP             0       ****    0 ROOT    
