@<TRIPOS>MOLECULE
3R136
137   139    1
SMALL
USER_CHARGES


@<TRIPOS>ATOM
      1 CA         26.0189   23.3675    3.0869 C.3       0 UNK        -0.1979 
      2 C          27.1932   22.7426    2.3490 C.2       0 UNK         0.4864 
      3 O          27.4791   21.5604    2.5419 O.2       0 UNK        -0.5359 
      4 N          27.8802   23.5327    1.5151 N.am      1 UNK        -0.4318 
      5 CA         29.0267   23.1016    0.7070 C.3       1 UNK         0.0824 
      6 C6         29.9732   24.2695    0.3030 C.3       12 UNK        -0.0944 
      7 S7         30.2233   25.5774    1.5487 S.3       12 UNK        -0.2672 
      8 C8         30.6835   24.6738    3.0591 C.3       12 UNK         0.0333 
      9 C9         30.4695   25.5859    4.2529 C.ar      12 UNK        -0.0807 
     10 C10        31.5051   26.4016    4.7110 C.ar      12 UNK        -0.0894 
     11 C11        31.2836   27.3273    5.7349 C.ar      12 UNK        -0.0804 
     12 C12        30.0084   27.4219    6.3036 C.ar      12 UNK        -0.0824 
     13 C13        28.9620   26.6081    5.8550 C.ar      12 UNK        -0.0762 
     14 C14        29.2084   25.6724    4.8462 C.ar      12 UNK        -0.0782 
     15 C15        27.5629   26.7744    6.4420 C.3       12 UNK         0.0230 
     16 S16        26.2379   26.8768    5.1840 S.3       12 UNK        -0.2608 
     17 C17        26.8345   28.1869    4.0567 C.3       12 UNK        -0.0989 
     18 CA         27.0204   27.6523    2.6116 C.3       5 UNK         0.0716 
     19 N          25.7438   27.2344    2.0218 N.am      5 UNK        -0.4135 
     20 C          25.5946   26.3713    1.0099 C.2       4 UNK         0.5031 
     21 O          26.5431   25.7712    0.4914 O.2       4 UNK        -0.5229 
     22 CA         24.1561   26.0958    0.5257 C.3       4 UNK         0.0329 
     23 CB         23.1924   27.2880    0.7242 C.3       4 UNK        -0.2001 
     24 N          24.1304   25.6222   -0.8627 N.am      4 UNK        -0.4303 
     25 C          24.5227   26.2859   -1.9598 C.2       3 UNK         0.5044 
     26 O          24.8843   27.4641   -1.9663 O.2       3 UNK        -0.5152 
     27 CA         24.5568   25.4601   -3.2613 C.3       3 UNK         0.0319 
     28 CB         24.7696   26.3337   -4.5111 C.3       3 UNK        -0.2001 
     29 N          25.6185   24.4531   -3.2030 N.am      3 UNK        -0.4354 
     30 C          25.5623   23.3029   -2.5183 C.2       2 UNK         0.4964 
     31 O          24.5607   22.9131   -1.9161 O.2       2 UNK        -0.5047 
     32 CA         26.8609   22.4998   -2.4122 C.3       2 UNK         0.0288 
     33 CB         27.7871   22.6467   -3.6410 C.3       2 UNK        -0.2113 
     34 N          27.5211   22.9645   -1.1990 N.am      2 UNK        -0.4145 
     35 C          28.5331   22.3705   -0.5549 C.2       1 UNK         0.5006 
     36 O          29.0627   21.3160   -0.9093 O.2       1 UNK        -0.5103 
     37 C          27.7247   28.6667    1.6852 C.2       5 UNK         0.5055 
     38 O          27.8589   29.8396    2.0331 O.2       5 UNK        -0.5220 
     39 N          28.1358   28.2010    0.4998 N.am      6 UNK        -0.4450 
     40 CA         28.7650   28.9966   -0.5563 C.3       6 UNK         0.0367 
     41 CB         28.8915   28.1300   -1.8196 C.3       6 UNK        -0.1929 
     42 C          30.1327   29.5877   -0.1676 C.2       6 UNK         0.5070 
     43 O          30.4907   30.6550   -0.6653 O.2       6 UNK        -0.5237 
     44 N          30.8671   28.8937    0.7111 N.am      7 UNK        -0.4739 
     45 CA         32.2090   29.2672    1.1663 C.3       7 UNK         0.0276 
     46 CB         33.0783   27.9978    1.2165 C.3       7 UNK        -0.1927 
     47 C          32.2102   29.9939    2.5244 C.2       7 UNK         0.5013 
     48 O          33.2830   30.1172    3.1195 O.2       7 UNK        -0.5193 
     49 N          31.0388   30.4553    2.9972 N.am      8 UNK        -0.4253 
     50 CA         30.7613   31.0149    4.3336 C.3       8 UNK         0.0242 
     51 CB         29.3602   31.6480    4.3457 C.3       8 UNK        -0.2000 
     52 C          31.7787   32.0170    4.9140 C.2       8 UNK         0.4948 
     53 O          31.9135   32.0878    6.1358 O.2       8 UNK        -0.5275 
     54 N          32.4678   32.7688    4.0467 N.am      9 UNK        -0.4246 
     55 CA         33.4939   33.7453    4.4127 C.3       9 UNK         0.0261 
     56 CB         33.8522   34.5814    3.1729 C.3       9 UNK        -0.1959 
     57 C          34.7694   33.1412    5.0343 C.2       9 UNK         0.5033 
     58 O          35.4476   33.8559    5.7751 O.2       9 UNK        -0.5390 
     59 N          35.0984   31.8775    4.7216 N.am      10 UNK        -0.4215 
     60 CA         36.3466   31.2371    5.1679 C.3       10 UNK         0.0240 
     61 CB         37.5006   31.6483    4.2316 C.3       10 UNK        -0.1982 
     62 C          36.2839   29.7054    5.2962 C.2       10 UNK         0.4970 
     63 O          37.1639   29.1344    5.9412 O.2       10 UNK        -0.4916 
     64 N          35.2901   29.0640    4.6719 N.am      11 UNK        -0.4279 
     65 CA         35.1165   27.6066    4.5542 C.3       11 UNK         0.1003 
     66 C          36.1567   26.9062    3.6265 C.2       11 UNK         0.5709 
     67 N          36.9040   27.6313    2.8022 N.am      11 UNK        -0.7358 
     68 O          36.2664   25.6824    3.6234 O.2       11 UNK        -0.4999 
     69 C69        34.9273   26.8550    5.9108 C.3       12 UNK        -0.0954 
     70 S70        33.7166   27.5025    7.1257 S.3       12 UNK        -0.2268 
     71 C71        32.3834   28.2899    6.1684 C.3       12 UNK         0.0203 
     72 H72        25.9216   22.9341    4.0820 H         1 UNK         0.0888 
     73 H73        26.1485   24.4422    3.2065 H         1 UNK         0.0888 
     74 H74        25.0924   23.1870    2.5428 H         1 UNK         0.0888 
     75 H75        27.5562   24.4807    1.3404 H         1 UNK         0.3017 
     76 H76        29.6091   22.3864    1.2918 H         1 UNK         0.0873 
     77 H77        30.9507   23.8730    0.0225 H         1 UNK         0.0745 
     78 H78        29.6000   24.7852   -0.5844 H         1 UNK         0.0745 
     79 H79        30.0850   23.7715    3.1792 H         1 UNK         0.0705 
     80 H80        31.7242   24.3536    2.9920 H         1 UNK         0.0705 
     81 H81        32.4709   26.3259    4.2411 H         1 UNK         0.1334 
     82 H82        29.8225   28.1524    7.0792 H         1 UNK         0.1417 
     83 H83        28.4031   25.0487    4.4840 H         1 UNK         0.1562 
     84 H84        27.5118   27.6705    7.0625 H         1 UNK         0.0748 
     85 H85        27.3563   25.9312    7.1022 H         1 UNK         0.0748 
     86 H86        27.7734   28.5903    4.4392 H         1 UNK         0.0940 
     87 H87        26.1252   29.0163    4.0757 H         1 UNK         0.0940 
     88 H88        27.6746   26.7806    2.6679 H         1 UNK         0.0703 
     89 H89        24.9209   27.6839    2.3948 H         1 UNK         0.3081 
     90 H90        23.7881   25.2664    1.1308 H         1 UNK         0.0719 
     91 H91        22.2163   27.0806    0.2855 H         1 UNK         0.0809 
     92 H92        23.5722   28.2017    0.2653 H         1 UNK         0.0809 
     93 H93        23.0222   27.4940    1.7812 H         1 UNK         0.0809 
     94 H94        23.9370   24.6332   -0.9835 H         1 UNK         0.2990 
     95 H95        23.5923   24.9588   -3.3639 H         1 UNK         0.0690 
     96 H96        24.7357   25.7365   -5.4222 H         1 UNK         0.0788 
     97 H97        25.7286   26.8519   -4.4854 H         1 UNK         0.0788 
     98 H98        23.9909   27.0930   -4.5928 H         1 UNK         0.0788 
     99 H99        26.4961   24.7055   -3.6344 H         1 UNK         0.2993 
    100 H100       26.5912   21.4484   -2.2926 H         1 UNK         0.0949 
    101 H101       27.2488   22.4378   -4.5666 H         1 UNK         0.0767 
    102 H102       28.2153   23.6463   -3.7204 H         1 UNK         0.0767 
    103 H103       28.6165   21.9413   -3.5920 H         1 UNK         0.0767 
    104 H104       27.1330   23.8084   -0.7941 H         1 UNK         0.3013 
    105 H105       27.9251   27.2320    0.2831 H         1 UNK         0.3121 
    106 H106       28.0993   29.8330   -0.7795 H         1 UNK         0.0774 
    107 H107       29.3267   28.6994   -2.6420 H         1 UNK         0.0815 
    108 H108       29.5288   27.2611   -1.6500 H         1 UNK         0.0815 
    109 H109       27.9169   27.7724   -2.1541 H         1 UNK         0.0815 
    110 H110       30.4936   28.0231    1.0681 H         1 UNK         0.2987 
    111 H111       32.6654   29.9514    0.4478 H         1 UNK         0.0949 
    112 H112       32.7240   27.2955    1.9708 H         1 UNK         0.0806 
    113 H113       33.0805   27.4812    0.2566 H         1 UNK         0.0806 
    114 H114       34.1159   28.2382    1.4510 H         1 UNK         0.0806 
    115 H115       30.2256   30.3110    2.4124 H         1 UNK         0.3010 
    116 H116       30.7344   30.1704    5.0203 H         1 UNK         0.0829 
    117 H117       28.5832   30.8935    4.2407 H         1 UNK         0.0813 
    118 H118       29.1637   32.1643    5.2868 H         1 UNK         0.0813 
    119 H119       29.2375   32.3755    3.5425 H         1 UNK         0.0813 
    120 H120       32.2968   32.6325    3.0611 H         1 UNK         0.3038 
    121 H121       33.0594   34.4144    5.1585 H         1 UNK         0.0769 
    122 H122       34.5937   35.3436    3.4168 H         1 UNK         0.0811 
    123 H123       32.9787   35.0989    2.7756 H         1 UNK         0.0811 
    124 H124       34.2702   33.9640    2.3767 H         1 UNK         0.0811 
    125 H125       34.4757   31.3495    4.1178 H         1 UNK         0.3204 
    126 H126       36.5795   31.5969    6.1726 H         1 UNK         0.0748 
    127 H127       38.4387   31.1771    4.5285 H         1 UNK         0.0771 
    128 H128       37.3011   31.3602    3.1989 H         1 UNK         0.0771 
    129 H129       37.6652   32.7258    4.2517 H         1 UNK         0.0771 
    130 H130       34.6108   29.5916    4.1298 H         1 UNK         0.2980 
    131 H131       34.1931   27.5082    3.9927 H         1 UNK         0.0545 
    132 H132       36.8197   28.6340    2.7804 H         1 UNK         0.3459 
    133 H133       37.5641   27.1661    2.1995 H         1 UNK         0.3459 
    134 H134       34.6335   25.8225    5.7143 H         1 UNK         0.0616 
    135 H135       35.8860   26.7888    6.4273 H         1 UNK         0.0616 
    136 H136       32.7739   28.8118    5.3014 H         1 UNK         0.0634 
    137 H137       31.9603   29.0709    6.8019 H         1 UNK         0.0634 
@<TRIPOS>BOND
     1    1    2 1    
     2    1   72 1    
     3    1   73 1    
     4    1   74 1    
     5    2    3 2    
     6    2    4 am   BACKBONE|DICT|INTERRES
     7    4    5 1    
     8    4   75 1    
     9    5    6 1    
    10    5   35 1    
    11    5   76 1    
    12    6    7 1    
    13    6   77 1    
    14    6   78 1    
    15    7    8 1    
    16    8    9 1    
    17    8   79 1    
    18    8   80 1    
    19    9   10 ar   
    20    9   14 ar   
    21   10   11 ar   
    22   10   81 1    
    23   11   12 ar   
    24   11   71 1    
    25   12   13 ar   
    26   12   82 1    
    27   13   14 ar   
    28   13   15 1    
    29   14   83 1    
    30   15   16 1    
    31   15   84 1    
    32   15   85 1    
    33   16   17 1    
    34   17   18 1    
    35   17   86 1    
    36   17   87 1    
    37   18   19 1    
    38   18   37 1    
    39   18   88 1    
    40   19   20 am   BACKBONE|DICT|INTERRES
    41   19   89 1    
    42   20   21 2    
    43   20   22 1    
    44   22   23 1    
    45   22   24 1    
    46   22   90 1    
    47   23   91 1    
    48   23   92 1    
    49   23   93 1    
    50   24   25 am   BACKBONE|DICT|INTERRES
    51   24   94 1    
    52   25   26 2    
    53   25   27 1    
    54   27   28 1    
    55   27   29 1    
    56   27   95 1    
    57   28   96 1    
    58   28   97 1    
    59   28   98 1    
    60   29   30 am   BACKBONE|DICT|INTERRES
    61   29   99 1    
    62   30   31 2    
    63   30   32 1    
    64   32   33 1    
    65   32   34 1    
    66   32  100 1    
    67   33  101 1    
    68   33  102 1    
    69   33  103 1    
    70   34   35 am   BACKBONE|DICT|INTERRES
    71   34  104 1    
    72   35   36 2    
    73   37   38 2    
    74   37   39 am   BACKBONE|DICT|INTERRES
    75   39   40 1    
    76   39  105 1    
    77   40   41 1    
    78   40   42 1    
    79   40  106 1    
    80   41  107 1    
    81   41  108 1    
    82   41  109 1    
    83   42   43 2    
    84   42   44 am   BACKBONE|DICT|INTERRES
    85   44   45 1    
    86   44  110 1    
    87   45   46 1    
    88   45   47 1    
    89   45  111 1    
    90   46  112 1    
    91   46  113 1    
    92   46  114 1    
    93   47   48 2    
    94   47   49 am   BACKBONE|DICT|INTERRES
    95   49   50 1    
    96   49  115 1    
    97   50   51 1    
    98   50   52 1    
    99   50  116 1    
   100   51  117 1    
   101   51  118 1    
   102   51  119 1    
   103   52   53 2    
   104   52   54 am   BACKBONE|DICT|INTERRES
   105   54   55 1    
   106   54  120 1    
   107   55   56 1    
   108   55   57 1    
   109   55  121 1    
   110   56  122 1    
   111   56  123 1    
   112   56  124 1    
   113   57   58 2    
   114   57   59 am   BACKBONE|DICT|INTERRES
   115   59   60 1    
   116   59  125 1    
   117   60   61 1    
   118   60   62 1    
   119   60  126 1    
   120   61  127 1    
   121   61  128 1    
   122   61  129 1    
   123   62   63 2    
   124   62   64 am   BACKBONE|DICT|INTERRES
   125   64   65 1    
   126   64  130 1    
   127   65   66 1    
   128   65   69 1    
   129   65  131 1    
   130   66   67 am   BACKBONE|DICT|INTERRES
   131   66   68 2    
   132   67  132 1    
   133   67  133 1    
   134   69   70 1    
   135   69  134 1    
   136   69  135 1    
   137   70   71 1    
   138   71  136 1    
   139   71  137 1    
@<TRIPOS>SUBSTRUCTURE
     1 UNK         1 GROUP             0       ****    0 ROOT    
