@<TRIPOS>MOLECULE
3R136
137   139    1
SMALL
USER_CHARGES


@<TRIPOS>ATOM
      1 CA         33.6467   21.5315    2.9344 C.3       0 UNK        -0.1979 
      2 C          32.7757   20.7170    1.9806 C.2       0 UNK         0.4864 
      3 O          32.9445   19.5004    1.9080 O.2       0 UNK        -0.5359 
      4 N          31.8464   21.3206    1.2313 N.am      1 UNK        -0.4318 
      5 CA         31.5010   22.7412    1.1756 C.3       1 UNK         0.0824 
      6 C6         30.7733   23.2593    2.4504 C.3       12 UNK        -0.0944 
      7 S7         29.2602   22.3280    2.8863 S.3       12 UNK        -0.2672 
      8 C8         29.0352   22.7958    4.6295 C.3       12 UNK         0.0333 
      9 C9         28.6253   24.2541    4.7734 C.ar      12 UNK        -0.0807 
     10 C10        29.5858   25.2308    5.0452 C.ar      12 UNK        -0.0894 
     11 C11        29.2209   26.5750    5.1742 C.ar      12 UNK        -0.0804 
     12 C12        27.8738   26.9348    5.0536 C.ar      12 UNK        -0.0824 
     13 C13        26.8992   25.9619    4.8032 C.ar      12 UNK        -0.0762 
     14 C14        27.2834   24.6256    4.6536 C.ar      12 UNK        -0.0782 
     15 C15        25.4238   26.3337    4.7455 C.3       12 UNK         0.0230 
     16 S16        24.8058   26.4647    3.0380 S.3       12 UNK        -0.2608 
     17 C17        25.3875   28.1233    2.5473 C.3       12 UNK        -0.0989 
     18 CA         26.4189   28.0735    1.3853 C.3       5 UNK         0.0716 
     19 N          25.9160   27.4273    0.1650 N.am      5 UNK        -0.4135 
     20 C          24.8387   27.7608   -0.5657 C.2       4 UNK         0.5031 
     21 O          24.0406   28.6496   -0.2622 O.2       4 UNK        -0.5229 
     22 CA         24.6003   26.9846   -1.8775 C.3       4 UNK         0.0329 
     23 CB         24.9868   27.8503   -3.0886 C.3       4 UNK        -0.2001 
     24 N          25.3288   25.7169   -1.9522 N.am      4 UNK        -0.4303 
     25 C          25.0148   24.6128   -1.2614 C.2       3 UNK         0.5044 
     26 O          24.0083   24.5079   -0.5600 O.2       3 UNK        -0.5152 
     27 CA         25.9927   23.4257   -1.3559 C.3       3 UNK         0.0319 
     28 CB         25.4592   22.3693   -2.3373 C.3       3 UNK        -0.2001 
     29 N          27.3695   23.7776   -1.7321 N.am      3 UNK        -0.4354 
     30 C          28.1808   24.5873   -1.0371 C.2       2 UNK         0.4964 
     31 O          27.8290   25.2307   -0.0468 O.2       2 UNK        -0.5047 
     32 CA         29.6296   24.7127   -1.5345 C.3       2 UNK         0.0288 
     33 CB         29.9625   26.1720   -1.8910 C.3       2 UNK        -0.2113 
     34 N          30.5509   24.2480   -0.4996 N.am      2 UNK        -0.4145 
     35 C          30.6631   22.9776   -0.0933 C.2       1 UNK         0.5006 
     36 O          30.1261   22.0227   -0.6658 O.2       1 UNK        -0.5103 
     37 C          27.0251   29.4673    1.1029 C.2       5 UNK         0.5055 
     38 O          26.8268   30.0500    0.0338 O.2       5 UNK        -0.5220 
     39 N          27.7697   29.9764    2.0878 N.am      6 UNK        -0.4450 
     40 CA         28.4112   31.2871    2.1323 C.3       6 UNK         0.0367 
     41 CB         29.5537   31.3853    1.0957 C.3       6 UNK        -0.1929 
     42 C          28.9136   31.4850    3.5717 C.2       6 UNK         0.5070 
     43 O          28.5507   30.7018    4.4551 O.2       6 UNK        -0.5237 
     44 N          29.7535   32.5051    3.7860 N.am      7 UNK        -0.4739 
     45 CA         30.5148   32.6998    5.0239 C.3       7 UNK         0.0276 
     46 CB         31.1937   34.0784    4.9764 C.3       7 UNK        -0.1927 
     47 C          31.5711   31.5955    5.2082 C.2       7 UNK         0.5013 
     48 O          32.0306   31.0271    4.2155 O.2       7 UNK        -0.5193 
     49 N          31.9806   31.3490    6.4601 N.am      8 UNK        -0.4253 
     50 CA         32.9113   30.2821    6.8622 C.3       8 UNK         0.0242 
     51 CB         33.1271   30.3473    8.3829 C.3       8 UNK        -0.2000 
     52 C          34.2684   30.2656    6.1301 C.2       8 UNK         0.4948 
     53 O          34.8482   29.1928    5.9609 O.2       8 UNK        -0.5275 
     54 N          34.7440   31.4422    5.7027 N.am      9 UNK        -0.4246 
     55 CA         35.9687   31.6068    4.9169 C.3       9 UNK         0.0261 
     56 CB         36.5569   32.9974    5.2122 C.3       9 UNK        -0.1959 
     57 C          35.7571   31.4303    3.3997 C.2       9 UNK         0.5033 
     58 O          36.7495   31.3131    2.6788 O.2       9 UNK        -0.5390 
     59 N          34.5016   31.4513    2.9310 N.am      10 UNK        -0.4215 
     60 CA         34.1345   31.4617    1.5126 C.3       10 UNK         0.0240 
     61 CB         33.1901   32.6491    1.2586 C.3       10 UNK        -0.1982 
     62 C          33.4717   30.1542    1.0530 C.2       10 UNK         0.4970 
     63 O          33.5990   29.8118   -0.1228 O.2       10 UNK        -0.4916 
     64 N          32.7675   29.4581    1.9558 N.am      11 UNK        -0.4279 
     65 CA         32.0163   28.2253    1.6643 C.3       11 UNK         0.1003 
     66 C          32.8678   26.9744    1.2988 C.2       11 UNK         0.5709 
     67 N          34.1809   26.9771    1.4921 N.am      11 UNK        -0.7358 
     68 O          32.3194   25.9853    0.8204 O.2       11 UNK        -0.4999 
     69 C69        30.9748   27.9159    2.7707 C.3       12 UNK        -0.0954 
     70 S70        31.7266   27.5408    4.3891 S.3       12 UNK        -0.2268 
     71 C71        30.2740   27.6335    5.4844 C.3       12 UNK         0.0203 
     72 H72        34.5896   21.0155    3.1139 H         1 UNK         0.0888 
     73 H73        33.8898   22.5176    2.5429 H         1 UNK         0.0888 
     74 H74        33.1450   21.6489    3.8943 H         1 UNK         0.0888 
     75 H75        31.2877   20.7697    0.5901 H         1 UNK         0.3017 
     76 H76        32.4231   23.3078    1.0377 H         1 UNK         0.0873 
     77 H77        31.4538   23.2331    3.3007 H         1 UNK         0.0745 
     78 H78        30.5047   24.3115    2.3353 H         1 UNK         0.0745 
     79 H79        28.2691   22.1552    5.0687 H         1 UNK         0.0705 
     80 H80        29.9528   22.5947    5.1847 H         1 UNK         0.0705 
     81 H81        30.6237   24.9458    5.1500 H         1 UNK         0.1334 
     82 H82        27.5824   27.9690    5.1784 H         1 UNK         0.1417 
     83 H83        26.5343   23.8714    4.4530 H         1 UNK         0.1562 
     84 H84        25.2336   27.2632    5.2844 H         1 UNK         0.0748 
     85 H85        24.8431   25.5685    5.2630 H         1 UNK         0.0748 
     86 H86        25.8128   28.6169    3.4220 H         1 UNK         0.0940 
     87 H87        24.5191   28.7241    2.2735 H         1 UNK         0.0940 
     88 H88        27.2512   27.4466    1.7117 H         1 UNK         0.0703 
     89 H89        26.4929   26.6555   -0.1544 H         1 UNK         0.3081 
     90 H90        23.5313   26.7695   -1.9394 H         1 UNK         0.0719 
     91 H91        26.0487   28.0999   -3.0837 H         1 UNK         0.0809 
     92 H92        24.7621   27.3449   -4.0280 H         1 UNK         0.0809 
     93 H93        24.4330   28.7903   -3.0879 H         1 UNK         0.0809 
     94 H94        26.1657   25.7023   -2.5163 H         1 UNK         0.2990 
     95 H95        26.0378   22.9745   -0.3623 H         1 UNK         0.0690 
     96 H96        26.0793   21.4726   -2.3323 H         1 UNK         0.0788 
     97 H97        25.4233   22.7494   -3.3591 H         1 UNK         0.0788 
     98 H98        24.4476   22.0611   -2.0687 H         1 UNK         0.0788 
     99 H99        27.7483   23.2898   -2.5316 H         1 UNK         0.2993 
    100 H100       29.7671   24.0958   -2.4251 H         1 UNK         0.0949 
    101 H101       30.9825   26.2647   -2.2647 H         1 UNK         0.0767 
    102 H102       29.2958   26.5471   -2.6685 H         1 UNK         0.0767 
    103 H103       29.8637   26.8324   -1.0279 H         1 UNK         0.0767 
    104 H104       31.0616   24.9648    0.0134 H         1 UNK         0.3013 
    105 H105       27.8640   29.4779    2.9658 H         1 UNK         0.3121 
    106 H106       27.6590   32.0506    1.9253 H         1 UNK         0.0774 
    107 H107       30.3734   30.7123    1.3402 H         1 UNK         0.0815 
    108 H108       29.9601   32.3953    1.0480 H         1 UNK         0.0815 
    109 H109       29.2166   31.1426    0.0887 H         1 UNK         0.0815 
    110 H110       30.0082   33.0920    3.0059 H         1 UNK         0.2987 
    111 H111       29.8205   32.6671    5.8665 H         1 UNK         0.0949 
    112 H112       31.9060   34.1508    4.1531 H         1 UNK         0.0806 
    113 H113       30.4612   34.8770    4.8568 H         1 UNK         0.0806 
    114 H114       31.7401   34.2810    5.8985 H         1 UNK         0.0806 
    115 H115       31.5713   31.8857    7.2116 H         1 UNK         0.3010 
    116 H116       32.4225   29.3342    6.6356 H         1 UNK         0.0829 
    117 H117       32.1885   30.2265    8.9241 H         1 UNK         0.0813 
    118 H118       33.7943   29.5514    8.7176 H         1 UNK         0.0813 
    119 H119       33.5729   31.2952    8.6872 H         1 UNK         0.0813 
    120 H120       34.2088   32.2756    5.8987 H         1 UNK         0.3038 
    121 H121       36.6994   30.8584    5.2319 H         1 UNK         0.0769 
    122 H122       35.8783   33.7964    4.9106 H         1 UNK         0.0811 
    123 H123       37.4948   33.1475    4.6756 H         1 UNK         0.0811 
    124 H124       36.7716   33.1204    6.2740 H         1 UNK         0.0811 
    125 H125       33.7266   31.4621    3.5895 H         1 UNK         0.3204 
    126 H126       35.0220   31.6048    0.8925 H         1 UNK         0.0748 
    127 H127       32.2956   32.5913    1.8789 H         1 UNK         0.0771 
    128 H128       33.6832   33.5972    1.4735 H         1 UNK         0.0771 
    129 H129       32.8671   32.6806    0.2170 H         1 UNK         0.0771 
    130 H130       32.6508   29.8328    2.8929 H         1 UNK         0.2980 
    131 H131       31.4405   28.4361    0.7610 H         1 UNK         0.0545 
    132 H132       34.7189   26.1628    1.2444 H         1 UNK         0.3459 
    133 H133       34.6330   27.7833    1.8910 H         1 UNK         0.3459 
    134 H134       30.3082   28.7691    2.8955 H         1 UNK         0.0616 
    135 H135       30.3378   27.0792    2.4770 H         1 UNK         0.0616 
    136 H136       29.8541   28.6374    5.4228 H         1 UNK         0.0634 
    137 H137       30.6062   27.5018    6.5146 H         1 UNK         0.0634 
@<TRIPOS>BOND
     1    1    2 1    
     2    1   72 1    
     3    1   73 1    
     4    1   74 1    
     5    2    3 2    
     6    2    4 am   BACKBONE|DICT|INTERRES
     7    4    5 1    
     8    4   75 1    
     9    5    6 1    
    10    5   35 1    
    11    5   76 1    
    12    6    7 1    
    13    6   77 1    
    14    6   78 1    
    15    7    8 1    
    16    8    9 1    
    17    8   79 1    
    18    8   80 1    
    19    9   10 ar   
    20    9   14 ar   
    21   10   11 ar   
    22   10   81 1    
    23   11   12 ar   
    24   11   71 1    
    25   12   13 ar   
    26   12   82 1    
    27   13   14 ar   
    28   13   15 1    
    29   14   83 1    
    30   15   16 1    
    31   15   84 1    
    32   15   85 1    
    33   16   17 1    
    34   17   18 1    
    35   17   86 1    
    36   17   87 1    
    37   18   19 1    
    38   18   37 1    
    39   18   88 1    
    40   19   20 am   BACKBONE|DICT|INTERRES
    41   19   89 1    
    42   20   21 2    
    43   20   22 1    
    44   22   23 1    
    45   22   24 1    
    46   22   90 1    
    47   23   91 1    
    48   23   92 1    
    49   23   93 1    
    50   24   25 am   BACKBONE|DICT|INTERRES
    51   24   94 1    
    52   25   26 2    
    53   25   27 1    
    54   27   28 1    
    55   27   29 1    
    56   27   95 1    
    57   28   96 1    
    58   28   97 1    
    59   28   98 1    
    60   29   30 am   BACKBONE|DICT|INTERRES
    61   29   99 1    
    62   30   31 2    
    63   30   32 1    
    64   32   33 1    
    65   32   34 1    
    66   32  100 1    
    67   33  101 1    
    68   33  102 1    
    69   33  103 1    
    70   34   35 am   BACKBONE|DICT|INTERRES
    71   34  104 1    
    72   35   36 2    
    73   37   38 2    
    74   37   39 am   BACKBONE|DICT|INTERRES
    75   39   40 1    
    76   39  105 1    
    77   40   41 1    
    78   40   42 1    
    79   40  106 1    
    80   41  107 1    
    81   41  108 1    
    82   41  109 1    
    83   42   43 2    
    84   42   44 am   BACKBONE|DICT|INTERRES
    85   44   45 1    
    86   44  110 1    
    87   45   46 1    
    88   45   47 1    
    89   45  111 1    
    90   46  112 1    
    91   46  113 1    
    92   46  114 1    
    93   47   48 2    
    94   47   49 am   BACKBONE|DICT|INTERRES
    95   49   50 1    
    96   49  115 1    
    97   50   51 1    
    98   50   52 1    
    99   50  116 1    
   100   51  117 1    
   101   51  118 1    
   102   51  119 1    
   103   52   53 2    
   104   52   54 am   BACKBONE|DICT|INTERRES
   105   54   55 1    
   106   54  120 1    
   107   55   56 1    
   108   55   57 1    
   109   55  121 1    
   110   56  122 1    
   111   56  123 1    
   112   56  124 1    
   113   57   58 2    
   114   57   59 am   BACKBONE|DICT|INTERRES
   115   59   60 1    
   116   59  125 1    
   117   60   61 1    
   118   60   62 1    
   119   60  126 1    
   120   61  127 1    
   121   61  128 1    
   122   61  129 1    
   123   62   63 2    
   124   62   64 am   BACKBONE|DICT|INTERRES
   125   64   65 1    
   126   64  130 1    
   127   65   66 1    
   128   65   69 1    
   129   65  131 1    
   130   66   67 am   BACKBONE|DICT|INTERRES
   131   66   68 2    
   132   67  132 1    
   133   67  133 1    
   134   69   70 1    
   135   69  134 1    
   136   69  135 1    
   137   70   71 1    
   138   71  136 1    
   139   71  137 1    
@<TRIPOS>SUBSTRUCTURE
     1 UNK         1 GROUP             0       ****    0 ROOT    
