@<TRIPOS>MOLECULE
3R136
137   139    1
SMALL
USER_CHARGES


@<TRIPOS>ATOM
      1 CA         29.6886   21.6002    3.5163 C.3       0 UNK        -0.1979 
      2 C          29.1059   21.3620    2.1309 C.2       0 UNK         0.4864 
      3 O          28.4811   20.3260    1.8988 O.2       0 UNK        -0.5359 
      4 N          29.3219   22.3077    1.2085 N.am      1 UNK        -0.4318 
      5 CA         28.8353   22.2924   -0.1742 C.3       1 UNK         0.0824 
      6 C6         29.4456   23.4296   -1.0371 C.3       12 UNK        -0.0944 
      7 S7         31.2434   23.6632   -0.8147 S.3       12 UNK        -0.2672 
      8 C8         31.3067   25.3440   -0.1084 C.3       12 UNK         0.0333 
      9 C9         31.0758   25.3625    1.3987 C.ar      12 UNK        -0.0807 
     10 C10        32.1641   25.4895    2.2665 C.ar      12 UNK        -0.0894 
     11 C11        31.9649   25.5695    3.6467 C.ar      12 UNK        -0.0804 
     12 C12        30.6667   25.5081    4.1602 C.ar      12 UNK        -0.0824 
     13 C13        29.5648   25.3692    3.3114 C.ar      12 UNK        -0.0762 
     14 C14        29.7820   25.2968    1.9286 C.ar      12 UNK        -0.0782 
     15 C15        28.1732   25.2607    3.9406 C.3       12 UNK         0.0230 
     16 S16        26.7677   25.6832    2.8544 S.3       12 UNK        -0.2608 
     17 C17        26.9559   27.4885    2.6598 C.3       12 UNK        -0.0989 
     18 CA         27.5211   27.8866    1.2711 C.3       5 UNK         0.0716 
     19 N          26.7344   27.3110    0.1720 N.am      5 UNK        -0.4135 
     20 C          27.1950   27.0207   -1.0510 C.2       4 UNK         0.5031 
     21 O          28.3477   27.2659   -1.4101 O.2       4 UNK        -0.5229 
     22 CA         26.2071   26.3734   -2.0343 C.3       4 UNK         0.0329 
     23 CB         26.9030   25.5847   -3.1599 C.3       4 UNK        -0.2001 
     24 N          25.2539   25.4973   -1.3474 N.am      4 UNK        -0.4303 
     25 C          23.9370   25.4646   -1.5969 C.2       3 UNK         0.5044 
     26 O          23.3766   26.2291   -2.3850 O.2       3 UNK        -0.5152 
     27 CA         23.1003   24.4106   -0.8390 C.3       3 UNK         0.0319 
     28 CB         21.7741   24.0738   -1.5545 C.3       3 UNK        -0.2001 
     29 N          23.8382   23.1823   -0.5182 N.am      3 UNK        -0.4354 
     30 C          24.4256   22.3323   -1.3749 C.2       2 UNK         0.4964 
     31 O          24.4160   22.4535   -2.6013 O.2       2 UNK        -0.5047 
     32 CA         25.1796   21.1526   -0.7339 C.3       2 UNK         0.0288 
     33 CB         24.8460   19.8264   -1.4404 C.3       2 UNK        -0.2113 
     34 N          26.6353   21.3343   -0.7191 N.am      2 UNK        -0.4145 
     35 C          27.2959   22.3781   -0.1964 C.2       1 UNK         0.5006 
     36 O          26.7503   23.3826    0.2686 O.2       1 UNK        -0.5103 
     37 C          27.7139   29.4112    1.1192 C.2       5 UNK         0.5055 
     38 O          27.4300   30.1694    2.0491 O.2       5 UNK        -0.5220 
     39 N          28.1981   29.8396   -0.0525 N.am      6 UNK        -0.4450 
     40 CA         28.5931   31.2174   -0.3342 C.3       6 UNK         0.0367 
     41 CB         28.7009   31.4155   -1.8547 C.3       6 UNK        -0.1929 
     42 C          29.9305   31.5280    0.3548 C.2       6 UNK         0.5070 
     43 O          30.8694   30.7394    0.2272 O.2       6 UNK        -0.5237 
     44 N          29.9869   32.6674    1.0596 N.am      7 UNK        -0.4739 
     45 CA         31.1404   33.1811    1.8143 C.3       7 UNK         0.0276 
     46 CB         32.2709   33.6129    0.8552 C.3       7 UNK        -0.1927 
     47 C          31.6327   32.2211    2.9182 C.2       7 UNK         0.5013 
     48 O          32.8382   32.1197    3.1507 O.2       7 UNK        -0.5193 
     49 N          30.6897   31.5531    3.6021 N.am      8 UNK        -0.4253 
     50 CA         30.9318   30.5350    4.6364 C.3       8 UNK         0.0242 
     51 CB         29.5849   29.9815    5.1259 C.3       8 UNK        -0.2000 
     52 C          31.7914   30.9928    5.8318 C.2       8 UNK         0.4948 
     53 O          32.3892   30.1501    6.4996 O.2       8 UNK        -0.5275 
     54 N          31.8881   32.3103    6.0608 N.am      9 UNK        -0.4246 
     55 CA         32.8083   32.9284    7.0201 C.3       9 UNK         0.0261 
     56 CB         32.5336   34.4395    7.0823 C.3       9 UNK        -0.1959 
     57 C          34.2972   32.6643    6.7132 C.2       9 UNK         0.5033 
     58 O          35.1082   32.6784    7.6405 O.2       9 UNK        -0.5390 
     59 N          34.6359   32.4016    5.4405 N.am      10 UNK        -0.4215 
     60 CA         35.9880   32.0503    4.9973 C.3       10 UNK         0.0240 
     61 CB         36.0820   32.2133    3.4711 C.3       10 UNK        -0.1982 
     62 C          36.4315   30.6348    5.4148 C.2       10 UNK         0.4970 
     63 O          37.6282   30.3504    5.3469 O.2       10 UNK        -0.4916 
     64 N          35.4903   29.7753    5.8323 N.am      11 UNK        -0.4279 
     65 CA         35.7651   28.4115    6.3144 C.3       11 UNK         0.1003 
     66 C          36.4567   28.3520    7.7091 C.2       11 UNK         0.5709 
     67 N          36.5150   29.4364    8.4750 N.am      11 UNK        -0.7358 
     68 O          36.9572   27.3001    8.1000 O.2       11 UNK        -0.4999 
     69 C69        34.4947   27.5210    6.2994 C.3       12 UNK        -0.0954 
     70 S70        33.6547   27.4783    4.6797 S.3       12 UNK        -0.2268 
     71 C71        33.1482   25.7352    4.5862 C.3       12 UNK         0.0203 
     72 H72        30.2823   20.7411    3.8271 H         1 UNK         0.0888 
     73 H73        30.3320   22.4796    3.5416 H         1 UNK         0.0888 
     74 H74        28.8875   21.7419    4.2410 H         1 UNK         0.0888 
     75 H75        29.8567   23.1276    1.4597 H         1 UNK         0.3017 
     76 H76        29.1447   21.3398   -0.6094 H         1 UNK         0.0873 
     77 H77        28.9441   24.3801   -0.8520 H         1 UNK         0.0745 
     78 H78        29.2731   23.2151   -2.0931 H         1 UNK         0.0745 
     79 H79        32.2850   25.7695   -0.3371 H         1 UNK         0.0705 
     80 H80        30.5848   25.9918   -0.6069 H         1 UNK         0.0705 
     81 H81        33.1683   25.5480    1.8690 H         1 UNK         0.1334 
     82 H82        30.5148   25.5667    5.2297 H         1 UNK         0.1417 
     83 H83        28.9405   25.1913    1.2590 H         1 UNK         0.1562 
     84 H84        28.1174   25.8858    4.8334 H         1 UNK         0.0748 
     85 H85        28.0365   24.2334    4.2796 H         1 UNK         0.0748 
     86 H86        27.5973   27.8652    3.4576 H         1 UNK         0.0940 
     87 H87        25.9782   27.9472    2.8188 H         1 UNK         0.0940 
     88 H88        28.5309   27.4845    1.2064 H         1 UNK         0.0703 
     89 H89        25.7709   27.0976    0.3834 H         1 UNK         0.3081 
     90 H90        25.6790   27.2108   -2.4947 H         1 UNK         0.0719 
     91 H91        27.6136   26.2082   -3.7041 H         1 UNK         0.0809 
     92 H92        27.4471   24.7256   -2.7703 H         1 UNK         0.0809 
     93 H93        26.1784   25.2150   -3.8857 H         1 UNK         0.0809 
     94 H94        25.6478   24.8310   -0.6872 H         1 UNK         0.2990 
     95 H95        22.8477   24.8680    0.1186 H         1 UNK         0.0690 
     96 H96        21.1927   23.3444   -0.9906 H         1 UNK         0.0788 
     97 H97        21.9452   23.6677   -2.5521 H         1 UNK         0.0788 
     98 H98        21.1515   24.9622   -1.6678 H         1 UNK         0.0788 
     99 H99        23.9651   23.0078    0.4697 H         1 UNK         0.2993 
    100 H100       24.8562   21.0619    0.3053 H         1 UNK         0.0949 
    101 H101       25.2063   19.8145   -2.4700 H         1 UNK         0.0767 
    102 H102       25.2879   18.9763   -0.9200 H         1 UNK         0.0767 
    103 H103       23.7681   19.6610   -1.4706 H         1 UNK         0.0767 
    104 H104       27.1760   20.5626   -1.0814 H         1 UNK         0.3013 
    105 H105       28.4490   29.1350   -0.7400 H         1 UNK         0.3121 
    106 H106       27.8205   31.8887    0.0476 H         1 UNK         0.0774 
    107 H107       29.4528   30.7592   -2.2953 H         1 UNK         0.0815 
    108 H108       27.7503   31.2161   -2.3495 H         1 UNK         0.0815 
    109 H109       28.9829   32.4416   -2.0946 H         1 UNK         0.0815 
    110 H110       29.1529   33.2383    1.1028 H         1 UNK         0.2987 
    111 H111       30.7946   34.0767    2.3330 H         1 UNK         0.0949 
    112 H112       31.9074   34.3091    0.0995 H         1 UNK         0.0806 
    113 H113       33.0738   34.1153    1.3965 H         1 UNK         0.0806 
    114 H114       32.7133   32.7591    0.3408 H         1 UNK         0.0806 
    115 H115       29.7260   31.6977    3.3347 H         1 UNK         0.3010 
    116 H116       31.4766   29.7203    4.1545 H         1 UNK         0.0829 
    117 H117       28.9793   30.7538    5.6017 H         1 UNK         0.0813 
    118 H118       29.7321   29.1834    5.8552 H         1 UNK         0.0813 
    119 H119       29.0088   29.5621    4.3023 H         1 UNK         0.0813 
    120 H120       31.3575   32.9337    5.4706 H         1 UNK         0.3038 
    121 H121       32.5984   32.4997    8.0023 H         1 UNK         0.0769 
    122 H122       31.5065   34.6453    7.3842 H         1 UNK         0.0811 
    123 H123       32.7056   34.9216    6.1191 H         1 UNK         0.0811 
    124 H124       33.1860   34.9244    7.8101 H         1 UNK         0.0811 
    125 H125       33.9115   32.3803    4.7251 H         1 UNK         0.3204 
    126 H126       36.6853   32.7552    5.4551 H         1 UNK         0.0748 
    127 H127       35.4445   31.4979    2.9499 H         1 UNK         0.0771 
    128 H128       35.7873   33.2151    3.1578 H         1 UNK         0.0771 
    129 H129       37.1031   32.0518    3.1229 H         1 UNK         0.0771 
    130 H130       34.5224   30.0688    5.8755 H         1 UNK         0.2980 
    131 H131       36.4741   27.9649    5.6146 H         1 UNK         0.0545 
    132 H132       36.9696   29.3823    9.3727 H         1 UNK         0.3459 
    133 H133       36.1083   30.3066    8.1657 H         1 UNK         0.3459 
    134 H134       33.7749   27.8690    7.0422 H         1 UNK         0.0616 
    135 H135       34.7561   26.5002    6.5843 H         1 UNK         0.0616 
    136 H136       32.8840   25.3743    5.5816 H         1 UNK         0.0634 
    137 H137       33.9905   25.1296    4.2485 H         1 UNK         0.0634 
@<TRIPOS>BOND
     1    1    2 1    
     2    1   72 1    
     3    1   73 1    
     4    1   74 1    
     5    2    3 2    
     6    2    4 am   BACKBONE|DICT|INTERRES
     7    4    5 1    
     8    4   75 1    
     9    5    6 1    
    10    5   35 1    
    11    5   76 1    
    12    6    7 1    
    13    6   77 1    
    14    6   78 1    
    15    7    8 1    
    16    8    9 1    
    17    8   79 1    
    18    8   80 1    
    19    9   10 ar   
    20    9   14 ar   
    21   10   11 ar   
    22   10   81 1    
    23   11   12 ar   
    24   11   71 1    
    25   12   13 ar   
    26   12   82 1    
    27   13   14 ar   
    28   13   15 1    
    29   14   83 1    
    30   15   16 1    
    31   15   84 1    
    32   15   85 1    
    33   16   17 1    
    34   17   18 1    
    35   17   86 1    
    36   17   87 1    
    37   18   19 1    
    38   18   37 1    
    39   18   88 1    
    40   19   20 am   BACKBONE|DICT|INTERRES
    41   19   89 1    
    42   20   21 2    
    43   20   22 1    
    44   22   23 1    
    45   22   24 1    
    46   22   90 1    
    47   23   91 1    
    48   23   92 1    
    49   23   93 1    
    50   24   25 am   BACKBONE|DICT|INTERRES
    51   24   94 1    
    52   25   26 2    
    53   25   27 1    
    54   27   28 1    
    55   27   29 1    
    56   27   95 1    
    57   28   96 1    
    58   28   97 1    
    59   28   98 1    
    60   29   30 am   BACKBONE|DICT|INTERRES
    61   29   99 1    
    62   30   31 2    
    63   30   32 1    
    64   32   33 1    
    65   32   34 1    
    66   32  100 1    
    67   33  101 1    
    68   33  102 1    
    69   33  103 1    
    70   34   35 am   BACKBONE|DICT|INTERRES
    71   34  104 1    
    72   35   36 2    
    73   37   38 2    
    74   37   39 am   BACKBONE|DICT|INTERRES
    75   39   40 1    
    76   39  105 1    
    77   40   41 1    
    78   40   42 1    
    79   40  106 1    
    80   41  107 1    
    81   41  108 1    
    82   41  109 1    
    83   42   43 2    
    84   42   44 am   BACKBONE|DICT|INTERRES
    85   44   45 1    
    86   44  110 1    
    87   45   46 1    
    88   45   47 1    
    89   45  111 1    
    90   46  112 1    
    91   46  113 1    
    92   46  114 1    
    93   47   48 2    
    94   47   49 am   BACKBONE|DICT|INTERRES
    95   49   50 1    
    96   49  115 1    
    97   50   51 1    
    98   50   52 1    
    99   50  116 1    
   100   51  117 1    
   101   51  118 1    
   102   51  119 1    
   103   52   53 2    
   104   52   54 am   BACKBONE|DICT|INTERRES
   105   54   55 1    
   106   54  120 1    
   107   55   56 1    
   108   55   57 1    
   109   55  121 1    
   110   56  122 1    
   111   56  123 1    
   112   56  124 1    
   113   57   58 2    
   114   57   59 am   BACKBONE|DICT|INTERRES
   115   59   60 1    
   116   59  125 1    
   117   60   61 1    
   118   60   62 1    
   119   60  126 1    
   120   61  127 1    
   121   61  128 1    
   122   61  129 1    
   123   62   63 2    
   124   62   64 am   BACKBONE|DICT|INTERRES
   125   64   65 1    
   126   64  130 1    
   127   65   66 1    
   128   65   69 1    
   129   65  131 1    
   130   66   67 am   BACKBONE|DICT|INTERRES
   131   66   68 2    
   132   67  132 1    
   133   67  133 1    
   134   69   70 1    
   135   69  134 1    
   136   69  135 1    
   137   70   71 1    
   138   71  136 1    
   139   71  137 1    
@<TRIPOS>SUBSTRUCTURE
     1 UNK         1 GROUP             0       ****    0 ROOT    
