@<TRIPOS>MOLECULE
3R136
137   139    1
SMALL
USER_CHARGES


@<TRIPOS>ATOM
      1 CA         28.5715   19.9448   -0.3434 C.3       0 UNK        -0.1979 
      2 C          28.7900   20.9125   -1.4974 C.2       0 UNK         0.4864 
      3 O          28.4763   20.5828   -2.6425 O.2       0 UNK        -0.5359 
      4 N          29.3324   22.1002   -1.2044 N.am      1 UNK        -0.4318 
      5 CA         29.5325   23.1947   -2.1573 C.3       1 UNK         0.0824 
      6 C6         30.6005   24.2057   -1.6595 C.3       12 UNK        -0.0944 
      7 S7         30.3287   24.8120    0.0447 S.3       12 UNK        -0.2672 
      8 C8         31.6465   23.9166    0.9243 C.3       12 UNK         0.0333 
      9 C9         31.5040   24.0522    2.4315 C.ar      12 UNK        -0.0807 
     10 C10        32.2707   24.9860    3.1347 C.ar      12 UNK        -0.0894 
     11 C11        32.1544   25.1054    4.5272 C.ar      12 UNK        -0.0804 
     12 C12        31.2591   24.2697    5.2045 C.ar      12 UNK        -0.0824 
     13 C13        30.4877   23.3311    4.5126 C.ar      12 UNK        -0.0762 
     14 C14        30.6179   23.2251    3.1258 C.ar      12 UNK        -0.0782 
     15 C15        29.5190   22.4240    5.2588 C.3       12 UNK         0.0230 
     16 S16        27.7834   22.7929    4.8468 S.3       12 UNK        -0.2608 
     17 C17        27.5465   24.4292    5.6222 C.3       12 UNK        -0.0989 
     18 CA         27.7996   25.6073    4.6477 C.3       5 UNK         0.0716 
     19 N          27.0154   25.4874    3.4141 N.am      5 UNK        -0.4135 
     20 C          27.1331   26.2854    2.3454 C.2       4 UNK         0.5031 
     21 O          27.9084   27.2420    2.2945 O.2       4 UNK        -0.5229 
     22 CA         26.2389   25.9218    1.1446 C.3       4 UNK         0.0329 
     23 CB         24.7532   26.2333    1.4229 C.3       4 UNK        -0.2001 
     24 N          26.6978   26.5227   -0.1143 N.am      4 UNK        -0.4303 
     25 C          26.6615   27.8110   -0.4950 C.2       3 UNK         0.5044 
     26 O          26.0879   28.7083    0.1219 O.2       3 UNK        -0.5152 
     27 CA         27.3915   28.1759   -1.8025 C.3       3 UNK         0.0319 
     28 CB         28.7708   28.7762   -1.4850 C.3       3 UNK        -0.2001 
     29 N          27.5634   27.0437   -2.7152 N.am      3 UNK        -0.4354 
     30 C          26.5720   26.4542   -3.3993 C.2       2 UNK         0.4964 
     31 O          25.4096   26.8603   -3.4068 O.2       2 UNK        -0.5047 
     32 CA         26.9299   25.1864   -4.1986 C.3       2 UNK         0.0288 
     33 CB         27.1454   25.5296   -5.6819 C.3       2 UNK        -0.2113 
     34 N          28.1064   24.4651   -3.6948 N.am      2 UNK        -0.4145 
     35 C          28.1964   23.8916   -2.4855 C.2       1 UNK         0.5006 
     36 O          27.2994   23.9392   -1.6389 O.2       1 UNK        -0.5103 
     37 C          27.5515   26.9550    5.3546 C.2       5 UNK         0.5055 
     38 O          26.4350   27.4768    5.3020 O.2       5 UNK        -0.5220 
     39 N          28.6019   27.4964    5.9887 N.am      6 UNK        -0.4450 
     40 CA         28.6879   28.7944    6.6808 C.3       6 UNK         0.0367 
     41 CB         27.6446   28.9218    7.8085 C.3       6 UNK        -0.1929 
     42 C          28.6512   30.0193    5.7457 C.2       6 UNK         0.5070 
     43 O          29.3444   31.0002    6.0138 O.2       6 UNK        -0.5237 
     44 N          27.8803   29.9442    4.6559 N.am      7 UNK        -0.4739 
     45 CA         27.7894   30.9629    3.6075 C.3       7 UNK         0.0276 
     46 CB         26.4337   30.8113    2.9010 C.3       7 UNK        -0.1927 
     47 C          28.9464   30.9016    2.5908 C.2       7 UNK         0.5013 
     48 O          29.0845   31.8256    1.7868 O.2       7 UNK        -0.5193 
     49 N          29.7508   29.8306    2.6304 N.am      8 UNK        -0.4253 
     50 CA         30.8819   29.5405    1.7449 C.3       8 UNK         0.0242 
     51 CB         31.2459   28.0534    1.8898 C.3       8 UNK        -0.2000 
     52 C          32.1002   30.4649    1.9503 C.2       8 UNK         0.4948 
     53 O          33.1930   29.9877    2.2655 O.2       8 UNK        -0.5275 
     54 N          31.8915   31.7713    1.7350 N.am      9 UNK        -0.4246 
     55 CA         32.8808   32.8529    1.6915 C.3       9 UNK         0.0261 
     56 CB         33.6381   32.8118    0.3446 C.3       9 UNK        -0.1959 
     57 C          33.8039   32.8639    2.9243 C.2       9 UNK         0.5033 
     58 O          33.3524   33.2373    4.0080 O.2       9 UNK        -0.5390 
     59 N          35.0594   32.4304    2.7432 N.am      10 UNK        -0.4215 
     60 CA         36.1109   32.3589    3.7607 C.3       10 UNK         0.0240 
     61 CB         37.4171   31.8909    3.0981 C.3       10 UNK        -0.1982 
     62 C          35.7835   31.4771    4.9803 C.2       10 UNK         0.4970 
     63 O          36.3657   31.7131    6.0403 O.2       10 UNK        -0.4916 
     64 N          34.8733   30.5057    4.8282 N.am      11 UNK        -0.4279 
     65 CA         34.3456   29.6836    5.9277 C.3       11 UNK         0.1003 
     66 C          32.8259   29.8959    6.1806 C.2       11 UNK         0.5709 
     67 N          32.1902   30.9124    5.6090 N.am      11 UNK        -0.7358 
     68 O          32.2183   29.1467    6.9401 O.2       11 UNK        -0.4999 
     69 C69        34.7794   28.1964    5.8074 C.3       12 UNK        -0.0954 
     70 S70        34.0198   27.2724    4.4279 S.3       12 UNK        -0.2268 
     71 C71        32.9753   26.0951    5.3578 C.3       12 UNK         0.0203 
     72 H72        28.9021   20.3624    0.6076 H         1 UNK         0.0888 
     73 H73        27.5135   19.6993   -0.2558 H         1 UNK         0.0888 
     74 H74        29.1231   19.0214   -0.5181 H         1 UNK         0.0888 
     75 H75        29.5189   22.3412   -0.2424 H         1 UNK         0.3017 
     76 H76        29.9042   22.7565   -3.0866 H         1 UNK         0.0873 
     77 H77        31.5851   23.7391   -1.7164 H         1 UNK         0.0745 
     78 H78        30.6611   25.0690   -2.3249 H         1 UNK         0.0745 
     79 H79        31.6210   22.8606    0.6510 H         1 UNK         0.0705 
     80 H80        32.6162   24.2949    0.5967 H         1 UNK         0.0705 
     81 H81        32.9571   25.6125    2.5841 H         1 UNK         0.1334 
     82 H82        31.1663   24.3479    6.2794 H         1 UNK         0.1417 
     83 H83        30.0215   22.5014    2.5873 H         1 UNK         0.1562 
     84 H84        29.6607   22.4966    6.3383 H         1 UNK         0.0748 
     85 H85        29.7293   21.3868    4.9941 H         1 UNK         0.0748 
     86 H86        28.1953   24.5051    6.4970 H         1 UNK         0.0940 
     87 H87        26.5244   24.4678    6.0049 H         1 UNK         0.0940 
     88 H88        28.8472   25.5864    4.3427 H         1 UNK         0.0703 
     89 H89        26.3546   24.7256    3.3890 H         1 UNK         0.3081 
     90 H90        26.3327   24.8450    0.9938 H         1 UNK         0.0719 
     91 H91        24.6009   27.2760    1.7032 H         1 UNK         0.0809 
     92 H92        24.1336   26.0250    0.5506 H         1 UNK         0.0809 
     93 H93        24.3716   25.6244    2.2429 H         1 UNK         0.0809 
     94 H94        27.1756   25.8721   -0.7265 H         1 UNK         0.2990 
     95 H95        26.7957   28.9363   -2.3120 H         1 UNK         0.0690 
     96 H96        29.2859   29.0977   -2.3903 H         1 UNK         0.0788 
     97 H97        29.4108   28.0614   -0.9651 H         1 UNK         0.0788 
     98 H98        28.6704   29.6517   -0.8415 H         1 UNK         0.0788 
     99 H99        28.4911   26.6528   -2.7841 H         1 UNK         0.2993 
    100 H100       26.0743   24.5114   -4.1237 H         1 UNK         0.0949 
    101 H101       27.3018   24.6311   -6.2794 H         1 UNK         0.0767 
    102 H102       26.2750   26.0421   -6.0947 H         1 UNK         0.0767 
    103 H103       28.0064   26.1840   -5.8245 H         1 UNK         0.0767 
    104 H104       28.8883   24.3877   -4.3299 H         1 UNK         0.3013 
    105 H105       29.4767   26.9914    5.9512 H         1 UNK         0.3121 
    106 H106       29.6680   28.8015    7.1574 H         1 UNK         0.0774 
    107 H107       27.8206   29.8245    8.3949 H         1 UNK         0.0815 
    108 H108       26.6268   28.9847    7.4233 H         1 UNK         0.0815 
    109 H109       27.6943   28.0757    8.4937 H         1 UNK         0.0815 
    110 H110       27.3141   29.1095    4.5376 H         1 UNK         0.2987 
    111 H111       27.8245   31.9512    4.0711 H         1 UNK         0.0949 
    112 H112       26.3147   29.8116    2.4825 H         1 UNK         0.0806 
    113 H113       25.6065   30.9856    3.5890 H         1 UNK         0.0806 
    114 H114       26.3305   31.5240    2.0815 H         1 UNK         0.0806 
    115 H115       29.5176   29.1120    3.2997 H         1 UNK         0.3010 
    116 H116       30.5496   29.6963    0.7178 H         1 UNK         0.0829 
    117 H117       30.4177   27.4106    1.5949 H         1 UNK         0.0813 
    118 H118       32.0948   27.7862    1.2593 H         1 UNK         0.0813 
    119 H119       31.5084   27.8083    2.9186 H         1 UNK         0.0813 
    120 H120       30.9247   32.0472    1.5738 H         1 UNK         0.3038 
    121 H121       32.3194   33.7878    1.7253 H         1 UNK         0.0769 
    122 H122       32.9506   32.9518   -0.4898 H         1 UNK         0.0811 
    123 H123       34.1512   31.8627    0.1851 H         1 UNK         0.0811 
    124 H124       34.3786   33.6105    0.2806 H         1 UNK         0.0811 
    125 H125       35.3057   32.0984    1.8221 H         1 UNK         0.3204 
    126 H126       36.2628   33.3735    4.1347 H         1 UNK         0.0748 
    127 H127       37.7237   32.5673    2.2998 H         1 UNK         0.0771 
    128 H128       38.2332   31.8578    3.8216 H         1 UNK         0.0771 
    129 H129       37.3175   30.8908    2.6738 H         1 UNK         0.0771 
    130 H130       34.4233   30.3709    3.9276 H         1 UNK         0.2980 
    131 H131       34.7865   30.0330    6.8624 H         1 UNK         0.0545 
    132 H132       32.6824   31.5911    5.0409 H         1 UNK         0.3459 
    133 H133       31.1991   31.0334    5.7960 H         1 UNK         0.3459 
    134 H134       34.5752   27.6783    6.7458 H         1 UNK         0.0616 
    135 H135       35.8619   28.1441    5.6833 H         1 UNK         0.0616 
    136 H136       32.2930   26.6667    5.9875 H         1 UNK         0.0634 
    137 H137       33.6180   25.5251    6.0303 H         1 UNK         0.0634 
@<TRIPOS>BOND
     1    1    2 1    
     2    1   72 1    
     3    1   73 1    
     4    1   74 1    
     5    2    3 2    
     6    2    4 am   BACKBONE|DICT|INTERRES
     7    4    5 1    
     8    4   75 1    
     9    5    6 1    
    10    5   35 1    
    11    5   76 1    
    12    6    7 1    
    13    6   77 1    
    14    6   78 1    
    15    7    8 1    
    16    8    9 1    
    17    8   79 1    
    18    8   80 1    
    19    9   10 ar   
    20    9   14 ar   
    21   10   11 ar   
    22   10   81 1    
    23   11   12 ar   
    24   11   71 1    
    25   12   13 ar   
    26   12   82 1    
    27   13   14 ar   
    28   13   15 1    
    29   14   83 1    
    30   15   16 1    
    31   15   84 1    
    32   15   85 1    
    33   16   17 1    
    34   17   18 1    
    35   17   86 1    
    36   17   87 1    
    37   18   19 1    
    38   18   37 1    
    39   18   88 1    
    40   19   20 am   BACKBONE|DICT|INTERRES
    41   19   89 1    
    42   20   21 2    
    43   20   22 1    
    44   22   23 1    
    45   22   24 1    
    46   22   90 1    
    47   23   91 1    
    48   23   92 1    
    49   23   93 1    
    50   24   25 am   BACKBONE|DICT|INTERRES
    51   24   94 1    
    52   25   26 2    
    53   25   27 1    
    54   27   28 1    
    55   27   29 1    
    56   27   95 1    
    57   28   96 1    
    58   28   97 1    
    59   28   98 1    
    60   29   30 am   BACKBONE|DICT|INTERRES
    61   29   99 1    
    62   30   31 2    
    63   30   32 1    
    64   32   33 1    
    65   32   34 1    
    66   32  100 1    
    67   33  101 1    
    68   33  102 1    
    69   33  103 1    
    70   34   35 am   BACKBONE|DICT|INTERRES
    71   34  104 1    
    72   35   36 2    
    73   37   38 2    
    74   37   39 am   BACKBONE|DICT|INTERRES
    75   39   40 1    
    76   39  105 1    
    77   40   41 1    
    78   40   42 1    
    79   40  106 1    
    80   41  107 1    
    81   41  108 1    
    82   41  109 1    
    83   42   43 2    
    84   42   44 am   BACKBONE|DICT|INTERRES
    85   44   45 1    
    86   44  110 1    
    87   45   46 1    
    88   45   47 1    
    89   45  111 1    
    90   46  112 1    
    91   46  113 1    
    92   46  114 1    
    93   47   48 2    
    94   47   49 am   BACKBONE|DICT|INTERRES
    95   49   50 1    
    96   49  115 1    
    97   50   51 1    
    98   50   52 1    
    99   50  116 1    
   100   51  117 1    
   101   51  118 1    
   102   51  119 1    
   103   52   53 2    
   104   52   54 am   BACKBONE|DICT|INTERRES
   105   54   55 1    
   106   54  120 1    
   107   55   56 1    
   108   55   57 1    
   109   55  121 1    
   110   56  122 1    
   111   56  123 1    
   112   56  124 1    
   113   57   58 2    
   114   57   59 am   BACKBONE|DICT|INTERRES
   115   59   60 1    
   116   59  125 1    
   117   60   61 1    
   118   60   62 1    
   119   60  126 1    
   120   61  127 1    
   121   61  128 1    
   122   61  129 1    
   123   62   63 2    
   124   62   64 am   BACKBONE|DICT|INTERRES
   125   64   65 1    
   126   64  130 1    
   127   65   66 1    
   128   65   69 1    
   129   65  131 1    
   130   66   67 am   BACKBONE|DICT|INTERRES
   131   66   68 2    
   132   67  132 1    
   133   67  133 1    
   134   69   70 1    
   135   69  134 1    
   136   69  135 1    
   137   70   71 1    
   138   71  136 1    
   139   71  137 1    
@<TRIPOS>SUBSTRUCTURE
     1 UNK         1 GROUP             0       ****    0 ROOT    
