@<TRIPOS>MOLECULE
3R136
137   139    1
SMALL
USER_CHARGES


@<TRIPOS>ATOM
      1 CA         32.5043   17.6461    0.5451 C.3       0 UNK        -0.1979 
      2 C          32.0793   19.0799    0.8260 C.2       0 UNK         0.4864 
      3 O          32.8992   19.9931    0.7179 O.2       0 UNK        -0.5359 
      4 N          30.8075   19.2836    1.1930 N.am      1 UNK        -0.4318 
      5 CA         30.2093   20.5944    1.4601 C.3       1 UNK         0.0824 
      6 C6         28.8561   20.4627    2.2027 C.3       12 UNK        -0.0944 
      7 S7         29.1343   19.9848    3.9435 S.3       12 UNK        -0.2672 
      8 C8         28.2878   21.3027    4.8880 C.3       12 UNK         0.0333 
      9 C9         28.6073   22.7268    4.4343 C.ar      12 UNK        -0.0807 
     10 C10        29.9165   23.1253    4.1398 C.ar      12 UNK        -0.0894 
     11 C11        30.1836   24.4228    3.6898 C.ar      12 UNK        -0.0804 
     12 C12        29.1315   25.3360    3.5689 C.ar      12 UNK        -0.0824 
     13 C13        27.8228   24.9615    3.8918 C.ar      12 UNK        -0.0762 
     14 C14        27.5681   23.6549    4.3156 C.ar      12 UNK        -0.0782 
     15 C15        26.6827   25.9624    3.7706 C.3       12 UNK         0.0230 
     16 S16        26.8430   27.3038    4.9881 S.3       12 UNK        -0.2608 
     17 C17        26.0712   28.6936    4.0921 C.3       12 UNK        -0.0989 
     18 CA         27.1409   29.5759    3.4066 C.3       5 UNK         0.0716 
     19 N          27.8815   28.8524    2.3642 N.am      5 UNK        -0.4135 
     20 C          28.9808   29.2873    1.7358 C.2       4 UNK         0.5031 
     21 O          29.5221   30.3613    2.0056 O.2       4 UNK        -0.5229 
     22 CA         29.5841   28.4001    0.6270 C.3       4 UNK         0.0329 
     23 CB         31.1056   28.2730    0.7980 C.3       4 UNK        -0.2001 
     24 N          29.0169   27.0512    0.5176 N.am      4 UNK        -0.4303 
     25 C          27.8071   26.7280    0.0390 C.2       3 UNK         0.5044 
     26 O          26.9590   27.5653   -0.2701 O.2       3 UNK        -0.5152 
     27 CA         27.4815   25.2209   -0.0519 C.3       3 UNK         0.0319 
     28 CB         26.4342   24.9007   -1.1392 C.3       3 UNK        -0.2001 
     29 N          28.6760   24.3728   -0.1861 N.am      3 UNK        -0.4354 
     30 C          29.5350   24.3365   -1.2187 C.2       2 UNK         0.4964 
     31 O          29.4039   25.0052   -2.2439 O.2       2 UNK        -0.5047 
     32 CA         30.7787   23.4384   -1.0778 C.3       2 UNK         0.0288 
     33 CB         32.0522   24.2997   -0.9968 C.3       2 UNK        -0.2113 
     34 N          30.7451   22.5462    0.0852 N.am      2 UNK        -0.4145 
     35 C          30.0648   21.3936    0.1513 C.2       1 UNK         0.5006 
     36 O          29.3508   20.9592   -0.7553 O.2       1 UNK        -0.5103 
     37 C          26.5391   30.8963    2.8839 C.2       5 UNK         0.5055 
     38 O          26.4818   31.8692    3.6364 O.2       5 UNK        -0.5220 
     39 N          26.1839   30.9377    1.5902 N.am      6 UNK        -0.4450 
     40 CA         25.7634   32.1462    0.8718 C.3       6 UNK         0.0367 
     41 CB         25.2435   31.7471   -0.5185 C.3       6 UNK        -0.1929 
     42 C          26.8726   33.2112    0.7438 C.2       6 UNK         0.5070 
     43 O          26.5573   34.3872    0.5647 O.2       6 UNK        -0.5237 
     44 N          28.1399   32.7916    0.8606 N.am      7 UNK        -0.4739 
     45 CA         29.3294   33.6448    0.8749 C.3       7 UNK         0.0276 
     46 CB         30.3781   33.0377   -0.0757 C.3       7 UNK        -0.1927 
     47 C          29.8783   33.8213    2.3058 C.2       7 UNK         0.5013 
     48 O          31.0677   34.0952    2.4657 O.2       7 UNK        -0.5193 
     49 N          29.0101   33.6573    3.3175 N.am      8 UNK        -0.4253 
     50 CA         29.2866   33.7471    4.7572 C.3       8 UNK         0.0242 
     51 CB         29.7489   35.1662    5.1551 C.3       8 UNK        -0.2000 
     52 C          30.2258   32.6342    5.2627 C.2       8 UNK         0.4948 
     53 O          31.0890   32.8912    6.1037 O.2       8 UNK        -0.5275 
     54 N          30.0119   31.4138    4.7492 N.am      9 UNK        -0.4246 
     55 CA         30.7211   30.1673    5.0625 C.3       9 UNK         0.0261 
     56 CB         30.5479   29.7694    6.5436 C.3       9 UNK        -0.1959 
     57 C          32.1862   30.2052    4.6019 C.2       9 UNK         0.5033 
     58 O          33.0894   29.8376    5.3569 O.2       9 UNK        -0.5390 
     59 N          32.3981   30.6217    3.3460 N.am      10 UNK        -0.4215 
     60 CA         33.7060   30.6797    2.6829 C.3       10 UNK         0.0240 
     61 CB         33.6394   31.6997    1.5312 C.3       10 UNK        -0.1982 
     62 C          34.1794   29.2871    2.2148 C.2       10 UNK         0.4970 
     63 O          34.4824   29.1013    1.0352 O.2       10 UNK        -0.4916 
     64 N          34.1977   28.3237    3.1424 N.am      11 UNK        -0.4279 
     65 CA         34.5312   26.9115    2.9028 C.3       11 UNK         0.1003 
     66 C          36.0301   26.6362    2.5836 C.2       11 UNK         0.5709 
     67 N          36.9452   27.5709    2.8126 N.am      11 UNK        -0.7358 
     68 O          36.3668   25.5521    2.1135 O.2       11 UNK        -0.4999 
     69 C69        34.0440   26.0064    4.0654 C.3       12 UNK        -0.0954 
     70 S70        32.2537   26.1350    4.4028 S.3       12 UNK        -0.2268 
     71 C71        31.6045   24.8263    3.3184 C.3       12 UNK         0.0203 
     72 H72        33.3184   17.3591    1.2102 H         1 UNK         0.0888 
     73 H73        31.6848   16.9421    0.6893 H         1 UNK         0.0888 
     74 H74        32.8543   17.5532   -0.4826 H         1 UNK         0.0888 
     75 H75        30.1775   18.4971    1.2571 H         1 UNK         0.3017 
     76 H76        30.8985   21.1412    2.1074 H         1 UNK         0.0873 
     77 H77        28.2922   21.3958    2.1646 H         1 UNK         0.0745 
     78 H78        28.2193   19.7156    1.7254 H         1 UNK         0.0745 
     79 H79        27.2143   21.1172    4.8262 H         1 UNK         0.0705 
     80 H80        28.5549   21.2038    5.9408 H         1 UNK         0.0705 
     81 H81        30.7256   22.4161    4.2475 H         1 UNK         0.1334 
     82 H82        29.3369   26.3475    3.2484 H         1 UNK         0.1417 
     83 H83        26.5556   23.3597    4.5564 H         1 UNK         0.1562 
     84 H84        25.7154   25.4769    3.9093 H         1 UNK         0.0748 
     85 H85        26.6729   26.3693    2.7620 H         1 UNK         0.0748 
     86 H86        25.5102   29.2770    4.8256 H         1 UNK         0.0940 
     87 H87        25.3356   28.3251    3.3744 H         1 UNK         0.0940 
     88 H88        27.8612   29.8549    4.1755 H         1 UNK         0.0703 
     89 H89        27.4797   27.9841    2.0484 H         1 UNK         0.3081 
     90 H90        29.3946   28.9149   -0.3171 H         1 UNK         0.0719 
     91 H91        31.3716   27.8346    1.7607 H         1 UNK         0.0809 
     92 H92        31.5493   27.6600    0.0131 H         1 UNK         0.0809 
     93 H93        31.5829   29.2511    0.7382 H         1 UNK         0.0809 
     94 H94        29.6368   26.2905    0.7498 H         1 UNK         0.2990 
     95 H95        27.0369   24.9491    0.9054 H         1 UNK         0.0690 
     96 H96        26.2243   23.8321   -1.1857 H         1 UNK         0.0788 
     97 H97        26.7617   25.2223   -2.1282 H         1 UNK         0.0788 
     98 H98        25.4899   25.4062   -0.9329 H         1 UNK         0.0788 
     99 H99        28.8783   23.7789    0.6053 H         1 UNK         0.2993 
    100 H100       30.8362   22.8275   -1.9817 H         1 UNK         0.0949 
    101 H101       32.9482   23.6798   -0.9548 H         1 UNK         0.0767 
    102 H102       32.1482   24.9405   -1.8746 H         1 UNK         0.0767 
    103 H103       32.0513   24.9490   -0.1210 H         1 UNK         0.0767 
    104 H104       31.3392   22.7998    0.8609 H         1 UNK         0.3013 
    105 H105       26.2658   30.0930    1.0410 H         1 UNK         0.3121 
    106 H106       24.9411   32.5989    1.4301 H         1 UNK         0.0774 
    107 H107       26.0193   31.2690   -1.1182 H         1 UNK         0.0815 
    108 H108       24.8968   32.6213   -1.0715 H         1 UNK         0.0815 
    109 H109       24.4017   31.0582   -0.4459 H         1 UNK         0.0815 
    110 H110       28.3145   31.8122    1.0508 H         1 UNK         0.2987 
    111 H111       29.0823   34.6438    0.5096 H         1 UNK         0.0949 
    112 H112       30.6850   32.0432    0.2475 H         1 UNK         0.0806 
    113 H113       29.9885   32.9529   -1.0901 H         1 UNK         0.0806 
    114 H114       31.2741   33.6576   -0.1269 H         1 UNK         0.0806 
    115 H115       28.0591   33.4023    3.0796 H         1 UNK         0.3010 
    116 H116       28.3304   33.5706    5.2526 H         1 UNK         0.0829 
    117 H117       30.7373   35.3989    4.7581 H         1 UNK         0.0813 
    118 H118       29.0546   35.9257    4.7960 H         1 UNK         0.0813 
    119 H119       29.8054   35.2674    6.2396 H         1 UNK         0.0813 
    120 H120       29.3476   31.3457    3.9892 H         1 UNK         0.3038 
    121 H121       30.2482   29.3822    4.4720 H         1 UNK         0.0769 
    122 H122       30.9741   28.7828    6.7306 H         1 UNK         0.0811 
    123 H123       31.0454   30.4688    7.2159 H         1 UNK         0.0811 
    124 H124       29.4949   29.7241    6.8211 H         1 UNK         0.0811 
    125 H125       31.5898   30.8648    2.7855 H         1 UNK         0.3204 
    126 H126       34.4435   31.0432    3.4016 H         1 UNK         0.0748 
    127 H127       34.6153   31.8210    1.0593 H         1 UNK         0.0771 
    128 H128       32.9395   31.3893    0.7554 H         1 UNK         0.0771 
    129 H129       33.3315   32.6825    1.8884 H         1 UNK         0.0771 
    130 H130       33.9239   28.5710    4.0883 H         1 UNK         0.2980 
    131 H131       33.9834   26.6088    2.0083 H         1 UNK         0.0545 
    132 H132       37.9110   27.3799    2.5974 H         1 UNK         0.3459 
    133 H133       36.6796   28.4622    3.1989 H         1 UNK         0.3459 
    134 H134       34.2905   24.9608    3.8725 H         1 UNK         0.0616 
    135 H135       34.5703   26.2692    4.9848 H         1 UNK         0.0616 
    136 H136       31.6255   25.1793    2.2872 H         1 UNK         0.0634 
    137 H137       32.2639   23.9583    3.3632 H         1 UNK         0.0634 
@<TRIPOS>BOND
     1    1    2 1    
     2    1   72 1    
     3    1   73 1    
     4    1   74 1    
     5    2    3 2    
     6    2    4 am   BACKBONE|DICT|INTERRES
     7    4    5 1    
     8    4   75 1    
     9    5    6 1    
    10    5   35 1    
    11    5   76 1    
    12    6    7 1    
    13    6   77 1    
    14    6   78 1    
    15    7    8 1    
    16    8    9 1    
    17    8   79 1    
    18    8   80 1    
    19    9   10 ar   
    20    9   14 ar   
    21   10   11 ar   
    22   10   81 1    
    23   11   12 ar   
    24   11   71 1    
    25   12   13 ar   
    26   12   82 1    
    27   13   14 ar   
    28   13   15 1    
    29   14   83 1    
    30   15   16 1    
    31   15   84 1    
    32   15   85 1    
    33   16   17 1    
    34   17   18 1    
    35   17   86 1    
    36   17   87 1    
    37   18   19 1    
    38   18   37 1    
    39   18   88 1    
    40   19   20 am   BACKBONE|DICT|INTERRES
    41   19   89 1    
    42   20   21 2    
    43   20   22 1    
    44   22   23 1    
    45   22   24 1    
    46   22   90 1    
    47   23   91 1    
    48   23   92 1    
    49   23   93 1    
    50   24   25 am   BACKBONE|DICT|INTERRES
    51   24   94 1    
    52   25   26 2    
    53   25   27 1    
    54   27   28 1    
    55   27   29 1    
    56   27   95 1    
    57   28   96 1    
    58   28   97 1    
    59   28   98 1    
    60   29   30 am   BACKBONE|DICT|INTERRES
    61   29   99 1    
    62   30   31 2    
    63   30   32 1    
    64   32   33 1    
    65   32   34 1    
    66   32  100 1    
    67   33  101 1    
    68   33  102 1    
    69   33  103 1    
    70   34   35 am   BACKBONE|DICT|INTERRES
    71   34  104 1    
    72   35   36 2    
    73   37   38 2    
    74   37   39 am   BACKBONE|DICT|INTERRES
    75   39   40 1    
    76   39  105 1    
    77   40   41 1    
    78   40   42 1    
    79   40  106 1    
    80   41  107 1    
    81   41  108 1    
    82   41  109 1    
    83   42   43 2    
    84   42   44 am   BACKBONE|DICT|INTERRES
    85   44   45 1    
    86   44  110 1    
    87   45   46 1    
    88   45   47 1    
    89   45  111 1    
    90   46  112 1    
    91   46  113 1    
    92   46  114 1    
    93   47   48 2    
    94   47   49 am   BACKBONE|DICT|INTERRES
    95   49   50 1    
    96   49  115 1    
    97   50   51 1    
    98   50   52 1    
    99   50  116 1    
   100   51  117 1    
   101   51  118 1    
   102   51  119 1    
   103   52   53 2    
   104   52   54 am   BACKBONE|DICT|INTERRES
   105   54   55 1    
   106   54  120 1    
   107   55   56 1    
   108   55   57 1    
   109   55  121 1    
   110   56  122 1    
   111   56  123 1    
   112   56  124 1    
   113   57   58 2    
   114   57   59 am   BACKBONE|DICT|INTERRES
   115   59   60 1    
   116   59  125 1    
   117   60   61 1    
   118   60   62 1    
   119   60  126 1    
   120   61  127 1    
   121   61  128 1    
   122   61  129 1    
   123   62   63 2    
   124   62   64 am   BACKBONE|DICT|INTERRES
   125   64   65 1    
   126   64  130 1    
   127   65   66 1    
   128   65   69 1    
   129   65  131 1    
   130   66   67 am   BACKBONE|DICT|INTERRES
   131   66   68 2    
   132   67  132 1    
   133   67  133 1    
   134   69   70 1    
   135   69  134 1    
   136   69  135 1    
   137   70   71 1    
   138   71  136 1    
   139   71  137 1    
@<TRIPOS>SUBSTRUCTURE
     1 UNK         1 GROUP             0       ****    0 ROOT    
