@<TRIPOS>MOLECULE
3R136
137   139    1
SMALL
USER_CHARGES


@<TRIPOS>ATOM
      1 CA         29.8760   19.7974   -0.0552 C.3       0 UNK        -0.1979 
      2 C          29.2808   21.1967   -0.0150 C.2       0 UNK         0.4864 
      3 O          28.2738   21.4118    0.6606 O.2       0 UNK        -0.5359 
      4 N          29.8844   22.1434   -0.7476 N.am      1 UNK        -0.4318 
      5 CA         29.5613   23.5797   -0.8366 C.3       1 UNK         0.0824 
      6 C6         29.6574   24.3317    0.5169 C.3       12 UNK        -0.0944 
      7 S7         31.3340   24.2422    1.2343 S.3       12 UNK        -0.2672 
      8 C8         31.1045   23.1203    2.6517 C.3       12 UNK         0.0333 
      9 C9         31.5157   23.8062    3.9448 C.ar      12 UNK        -0.0807 
     10 C10        32.7727   23.5658    4.5048 C.ar      12 UNK        -0.0894 
     11 C11        33.1608   24.2106    5.6829 C.ar      12 UNK        -0.0804 
     12 C12        32.2920   25.1300    6.2825 C.ar      12 UNK        -0.0824 
     13 C13        31.0275   25.3775    5.7332 C.ar      12 UNK        -0.0762 
     14 C14        30.6389   24.6895    4.5785 C.ar      12 UNK        -0.0782 
     15 C15        30.0826   26.3774    6.3923 C.3       12 UNK         0.0230 
     16 S16        30.3721   28.0730    5.7820 S.3       12 UNK        -0.2608 
     17 C17        28.7792   28.5242    5.0175 C.3       12 UNK        -0.0989 
     18 CA         28.5234   27.7930    3.6741 C.3       5 UNK         0.0716 
     19 N          27.0983   27.5306    3.4478 N.am      5 UNK        -0.4135 
     20 C          26.1738   28.4157    3.0522 C.2       4 UNK         0.5031 
     21 O          26.3921   29.6154    2.8741 O.2       4 UNK        -0.5229 
     22 CA         24.7913   27.8315    2.7141 C.3       4 UNK         0.0329 
     23 CB         23.6615   28.7508    3.2103 C.3       4 UNK        -0.2001 
     24 N          24.6188   27.5960    1.2753 N.am      4 UNK        -0.4303 
     25 C          25.4133   26.8610    0.4832 C.2       3 UNK         0.5044 
     26 O          26.4499   26.3036    0.8587 O.2       3 UNK        -0.5152 
     27 CA         24.9875   26.7549   -0.9899 C.3       3 UNK         0.0319 
     28 CB         25.5032   27.9575   -1.7955 C.3       3 UNK        -0.2001 
     29 N          25.5100   25.5261   -1.5839 N.am      3 UNK        -0.4354 
     30 C          25.0061   24.3038   -1.3821 C.2       2 UNK         0.4964 
     31 O          23.9431   24.0891   -0.7976 O.2       2 UNK        -0.5047 
     32 CA         25.8338   23.1156   -1.9013 C.3       2 UNK         0.0288 
     33 CB         25.8256   23.0434   -3.4417 C.3       2 UNK        -0.2113 
     34 N          27.1992   23.0641   -1.3584 N.am      2 UNK        -0.4145 
     35 C          28.2295   23.8999   -1.5532 C.2       1 UNK         0.5006 
     36 O          28.1721   24.8975   -2.2756 O.2       1 UNK        -0.5103 
     37 C          29.2149   28.4144    2.4366 C.2       5 UNK         0.5055 
     38 O          30.0107   29.3497    2.5602 O.2       5 UNK        -0.5220 
     39 N          28.8329   27.9023    1.2542 N.am      6 UNK        -0.4450 
     40 CA         29.2198   28.3266   -0.0975 C.3       6 UNK         0.0367 
     41 CB         30.7421   28.1885   -0.3080 C.3       6 UNK        -0.1929 
     42 C          28.7162   29.7312   -0.4871 C.2       6 UNK         0.5070 
     43 O          29.1318   30.2434   -1.5262 O.2       6 UNK        -0.5237 
     44 N          27.8604   30.3421    0.3506 N.am      7 UNK        -0.4739 
     45 CA         27.3835   31.7314    0.2920 C.3       7 UNK         0.0276 
     46 CB         26.4897   31.9591   -0.9453 C.3       7 UNK        -0.1927 
     47 C          28.5125   32.7794    0.4113 C.2       7 UNK         0.5013 
     48 O          28.3072   33.9377    0.0441 O.2       7 UNK        -0.5193 
     49 N          29.6794   32.3596    0.9193 N.am      8 UNK        -0.4253 
     50 CA         30.9050   33.1569    0.9974 C.3       8 UNK         0.0242 
     51 CB         31.7674   32.8672   -0.2465 C.3       8 UNK        -0.2000 
     52 C          31.6884   32.9133    2.2987 C.2       8 UNK         0.4948 
     53 O          32.8126   33.4042    2.4083 O.2       8 UNK        -0.5275 
     54 N          31.0957   32.1743    3.2510 N.am      9 UNK        -0.4246 
     55 CA         31.6688   31.7446    4.5315 C.3       9 UNK         0.0261 
     56 CB         31.9342   32.9498    5.4597 C.3       9 UNK        -0.1959 
     57 C          32.9048   30.8483    4.3321 C.2       9 UNK         0.5033 
     58 O          34.0204   31.2310    4.6974 O.2       9 UNK        -0.5390 
     59 N          32.6730   29.6699    3.7359 N.am      10 UNK        -0.4215 
     60 CA         33.6590   28.6010    3.5455 C.3       10 UNK         0.0240 
     61 CB         32.9734   27.3886    2.8948 C.3       10 UNK        -0.1982 
     62 C          34.3537   28.1803    4.8554 C.2       10 UNK         0.4970 
     63 O          33.7305   28.1877    5.9183 O.2       10 UNK        -0.4916 
     64 N          35.6414   27.8355    4.7448 N.am      11 UNK        -0.4279 
     65 CA         36.5353   27.4667    5.8578 C.3       11 UNK         0.1003 
     66 C          36.8933   28.6329    6.8319 C.2       11 UNK         0.5709 
     67 N          36.4961   29.8745    6.5759 N.am      11 UNK        -0.7358 
     68 O          37.5853   28.4163    7.8243 O.2       11 UNK        -0.4999 
     69 C69        36.0785   26.1875    6.6191 C.3       12 UNK        -0.0954 
     70 S70        35.8900   24.7381    5.5281 S.3       12 UNK        -0.2268 
     71 C71        34.5011   23.8683    6.3192 C.3       12 UNK         0.0203 
     72 H72        29.1402   19.0872   -0.4317 H         1 UNK         0.0888 
     73 H73        30.7564   19.7460   -0.6956 H         1 UNK         0.0888 
     74 H74        30.1681   19.4869    0.9476 H         1 UNK         0.0888 
     75 H75        30.6864   21.8716   -1.2995 H         1 UNK         0.3017 
     76 H76        30.3353   23.9954   -1.4845 H         1 UNK         0.0873 
     77 H77        28.9094   23.9728    1.2250 H         1 UNK         0.0745 
     78 H78        29.4343   25.3878    0.3692 H         1 UNK         0.0745 
     79 H79        31.7030   22.2230    2.4873 H         1 UNK         0.0705 
     80 H80        30.0710   22.7807    2.7266 H         1 UNK         0.0705 
     81 H81        33.4500   22.8702    4.0280 H         1 UNK         0.1334 
     82 H82        32.5966   25.6506    7.1803 H         1 UNK         0.1417 
     83 H83        29.6583   24.8404    4.1549 H         1 UNK         0.1562 
     84 H84        30.2284   26.3660    7.4735 H         1 UNK         0.0748 
     85 H85        29.0454   26.0831    6.2263 H         1 UNK         0.0748 
     86 H86        28.7300   29.6072    4.8907 H         1 UNK         0.0940 
     87 H87        27.9965   28.2830    5.7386 H         1 UNK         0.0940 
     88 H88        28.9602   26.8029    3.7480 H         1 UNK         0.0703 
     89 H89        26.8220   26.5597    3.4983 H         1 UNK         0.3081 
     90 H90        24.6870   26.8704    3.2216 H         1 UNK         0.0719 
     91 H91        22.6825   28.2950    3.0607 H         1 UNK         0.0809 
     92 H92        23.6664   29.7129    2.6961 H         1 UNK         0.0809 
     93 H93        23.7632   28.9526    4.2776 H         1 UNK         0.0809 
     94 H94        23.8114   28.0341    0.8560 H         1 UNK         0.2990 
     95 H95        23.8967   26.7384   -1.0413 H         1 UNK         0.0690 
     96 H96        25.1474   27.9227   -2.8253 H         1 UNK         0.0788 
     97 H97        26.5919   27.9906   -1.8227 H         1 UNK         0.0788 
     98 H98        25.1563   28.8977   -1.3660 H         1 UNK         0.0788 
     99 H99        26.4368   25.5729   -1.9992 H         1 UNK         0.2993 
    100 H100       25.3422   22.2130   -1.5341 H         1 UNK         0.0949 
    101 H101       26.2979   23.9131   -3.8992 H         1 UNK         0.0767 
    102 H102       26.3467   22.1546   -3.7975 H         1 UNK         0.0767 
    103 H103       24.8043   22.9940   -3.8215 H         1 UNK         0.0767 
    104 H104       27.3673   22.3264   -0.6764 H         1 UNK         0.3013 
    105 H105       28.1065   27.1886    1.2698 H         1 UNK         0.3121 
    106 H106       28.7313   27.6288   -0.7790 H         1 UNK         0.0774 
    107 H107       31.0052   28.3321   -1.3565 H         1 UNK         0.0815 
    108 H108       31.2996   28.9284    0.2667 H         1 UNK         0.0815 
    109 H109       31.0971   27.1990   -0.0219 H         1 UNK         0.0815 
    110 H110       27.5685   29.8405    1.1834 H         1 UNK         0.2987 
    111 H111       26.7593   31.8705    1.1763 H         1 UNK         0.0949 
    112 H112       27.0544   31.8838   -1.8749 H         1 UNK         0.0806 
    113 H113       25.6767   31.2353   -0.9849 H         1 UNK         0.0806 
    114 H114       26.0341   32.9497   -0.9233 H         1 UNK         0.0806 
    115 H115       29.7582   31.3831    1.1743 H         1 UNK         0.3010 
    116 H116       30.6500   34.2188    0.9999 H         1 UNK         0.0829 
    117 H117       31.2243   33.0897   -1.1653 H         1 UNK         0.0813 
    118 H118       32.6724   33.4760   -0.2529 H         1 UNK         0.0813 
    119 H119       32.0741   31.8212   -0.2856 H         1 UNK         0.0813 
    120 H120       30.1782   31.8019    3.0518 H         1 UNK         0.3038 
    121 H121       30.9124   31.1248    5.0158 H         1 UNK         0.0769 
    122 H122       32.6993   33.6156    5.0596 H         1 UNK         0.0811 
    123 H123       31.0288   33.5355    5.6178 H         1 UNK         0.0811 
    124 H124       32.2794   32.6141    6.4382 H         1 UNK         0.0811 
    125 H125       31.7201   29.4627    3.4470 H         1 UNK         0.3204 
    126 H126       34.4158   28.9840    2.8583 H         1 UNK         0.0748 
    127 H127       32.5656   27.6389    1.9171 H         1 UNK         0.0771 
    128 H128       33.6743   26.5647    2.7521 H         1 UNK         0.0771 
    129 H129       32.1569   27.0114    3.5108 H         1 UNK         0.0771 
    130 H130       36.0775   27.8652    3.8349 H         1 UNK         0.2980 
    131 H131       37.4845   27.2251    5.3786 H         1 UNK         0.0545 
    132 H132       35.8936   30.0758    5.7908 H         1 UNK         0.3459 
    133 H133       36.7534   30.6122    7.2118 H         1 UNK         0.3459 
    134 H134       36.8078   25.9153    7.3839 H         1 UNK         0.0616 
    135 H135       35.1435   26.3727    7.1490 H         1 UNK         0.0616 
    136 H136       34.4869   24.0762    7.3902 H         1 UNK         0.0634 
    137 H137       34.6744   22.7949    6.2287 H         1 UNK         0.0634 
@<TRIPOS>BOND
     1    1    2 1    
     2    1   72 1    
     3    1   73 1    
     4    1   74 1    
     5    2    3 2    
     6    2    4 am   BACKBONE|DICT|INTERRES
     7    4    5 1    
     8    4   75 1    
     9    5    6 1    
    10    5   35 1    
    11    5   76 1    
    12    6    7 1    
    13    6   77 1    
    14    6   78 1    
    15    7    8 1    
    16    8    9 1    
    17    8   79 1    
    18    8   80 1    
    19    9   10 ar   
    20    9   14 ar   
    21   10   11 ar   
    22   10   81 1    
    23   11   12 ar   
    24   11   71 1    
    25   12   13 ar   
    26   12   82 1    
    27   13   14 ar   
    28   13   15 1    
    29   14   83 1    
    30   15   16 1    
    31   15   84 1    
    32   15   85 1    
    33   16   17 1    
    34   17   18 1    
    35   17   86 1    
    36   17   87 1    
    37   18   19 1    
    38   18   37 1    
    39   18   88 1    
    40   19   20 am   BACKBONE|DICT|INTERRES
    41   19   89 1    
    42   20   21 2    
    43   20   22 1    
    44   22   23 1    
    45   22   24 1    
    46   22   90 1    
    47   23   91 1    
    48   23   92 1    
    49   23   93 1    
    50   24   25 am   BACKBONE|DICT|INTERRES
    51   24   94 1    
    52   25   26 2    
    53   25   27 1    
    54   27   28 1    
    55   27   29 1    
    56   27   95 1    
    57   28   96 1    
    58   28   97 1    
    59   28   98 1    
    60   29   30 am   BACKBONE|DICT|INTERRES
    61   29   99 1    
    62   30   31 2    
    63   30   32 1    
    64   32   33 1    
    65   32   34 1    
    66   32  100 1    
    67   33  101 1    
    68   33  102 1    
    69   33  103 1    
    70   34   35 am   BACKBONE|DICT|INTERRES
    71   34  104 1    
    72   35   36 2    
    73   37   38 2    
    74   37   39 am   BACKBONE|DICT|INTERRES
    75   39   40 1    
    76   39  105 1    
    77   40   41 1    
    78   40   42 1    
    79   40  106 1    
    80   41  107 1    
    81   41  108 1    
    82   41  109 1    
    83   42   43 2    
    84   42   44 am   BACKBONE|DICT|INTERRES
    85   44   45 1    
    86   44  110 1    
    87   45   46 1    
    88   45   47 1    
    89   45  111 1    
    90   46  112 1    
    91   46  113 1    
    92   46  114 1    
    93   47   48 2    
    94   47   49 am   BACKBONE|DICT|INTERRES
    95   49   50 1    
    96   49  115 1    
    97   50   51 1    
    98   50   52 1    
    99   50  116 1    
   100   51  117 1    
   101   51  118 1    
   102   51  119 1    
   103   52   53 2    
   104   52   54 am   BACKBONE|DICT|INTERRES
   105   54   55 1    
   106   54  120 1    
   107   55   56 1    
   108   55   57 1    
   109   55  121 1    
   110   56  122 1    
   111   56  123 1    
   112   56  124 1    
   113   57   58 2    
   114   57   59 am   BACKBONE|DICT|INTERRES
   115   59   60 1    
   116   59  125 1    
   117   60   61 1    
   118   60   62 1    
   119   60  126 1    
   120   61  127 1    
   121   61  128 1    
   122   61  129 1    
   123   62   63 2    
   124   62   64 am   BACKBONE|DICT|INTERRES
   125   64   65 1    
   126   64  130 1    
   127   65   66 1    
   128   65   69 1    
   129   65  131 1    
   130   66   67 am   BACKBONE|DICT|INTERRES
   131   66   68 2    
   132   67  132 1    
   133   67  133 1    
   134   69   70 1    
   135   69  134 1    
   136   69  135 1    
   137   70   71 1    
   138   71  136 1    
   139   71  137 1    
@<TRIPOS>SUBSTRUCTURE
     1 UNK         1 GROUP             0       ****    0 ROOT    
