@<TRIPOS>MOLECULE
3R136
137   139    1
SMALL
USER_CHARGES


@<TRIPOS>ATOM
      1 CA         25.6270   27.5181    2.1865 C.3       0 UNK        -0.1979 
      2 C          25.7856   26.0281    2.4486 C.2       0 UNK         0.4864 
      3 O          25.0080   25.4520    3.2106 O.2       0 UNK        -0.5359 
      4 N          26.7804   25.3983    1.8149 N.am      1 UNK        -0.4318 
      5 CA         26.9971   23.9528    1.8146 C.3       1 UNK         0.0824 
      6 C6         28.4829   23.5958    1.5648 C.3       12 UNK        -0.0944 
      7 S7         29.4889   23.9345    3.0458 S.3       12 UNK        -0.2672 
      8 C8         31.1297   23.3585    2.5097 C.3       12 UNK         0.0333 
      9 C9         32.0359   24.5309    2.1706 C.ar      12 UNK        -0.0807 
     10 C10        32.6998   25.2102    3.1966 C.ar      12 UNK        -0.0894 
     11 C11        33.5261   26.2994    2.9091 C.ar      12 UNK        -0.0804 
     12 C12        33.6814   26.7084    1.5808 C.ar      12 UNK        -0.0824 
     13 C13        33.0364   26.0295    0.5425 C.ar      12 UNK        -0.0762 
     14 C14        32.2157   24.9361    0.8440 C.ar      12 UNK        -0.0782 
     15 C15        33.2409   26.4845   -0.8998 C.3       12 UNK         0.0230 
     16 S16        31.6839   26.8600   -1.7728 S.3       12 UNK        -0.2608 
     17 C17        30.8067   27.8829   -0.5415 C.3       12 UNK        -0.0989 
     18 CA         29.6404   28.7342   -1.1308 C.3       5 UNK         0.0716 
     19 N          28.7565   27.9551   -2.0077 N.am      5 UNK        -0.4135 
     20 C          27.9771   26.9322   -1.6353 C.2       4 UNK         0.5031 
     21 O          27.8285   26.5591   -0.4693 O.2       4 UNK        -0.5229 
     22 CA         27.3176   26.1464   -2.7741 C.3       4 UNK         0.0329 
     23 CB         28.2307   24.9819   -3.1935 C.3       4 UNK        -0.2001 
     24 N          26.0333   25.5957   -2.3432 N.am      4 UNK        -0.4303 
     25 C          24.8371   26.0586   -2.7372 C.2       3 UNK         0.5044 
     26 O          24.7036   27.0329   -3.4798 O.2       3 UNK        -0.5152 
     27 CA         23.5687   25.3248   -2.2593 C.3       3 UNK         0.0319 
     28 CB         22.6862   24.8915   -3.4461 C.3       3 UNK        -0.2001 
     29 N          23.8709   24.1608   -1.4277 N.am      3 UNK        -0.4354 
     30 C          23.1142   23.6950   -0.4298 C.2       2 UNK         0.4964 
     31 O          22.0165   24.1592   -0.1204 O.2       2 UNK        -0.5047 
     32 CA         23.7014   22.5303    0.3862 C.3       2 UNK         0.0288 
     33 CB         23.9996   21.2901   -0.4832 C.3       2 UNK        -0.2113 
     34 N          24.8656   22.9466    1.1794 N.am      2 UNK        -0.4145 
     35 C          26.0648   23.3632    0.7445 C.2       1 UNK         0.5006 
     36 O          26.4093   23.3736   -0.4411 O.2       1 UNK        -0.5103 
     37 C          28.8387   29.4931   -0.0426 C.2       5 UNK         0.5055 
     38 O          27.7120   29.9270   -0.2966 O.2       5 UNK        -0.5220 
     39 N          29.4286   29.6318    1.1483 N.am      6 UNK        -0.4450 
     40 CA         28.8004   30.0793    2.3805 C.3       6 UNK         0.0367 
     41 CB         29.0133   31.5905    2.5727 C.3       6 UNK        -0.1929 
     42 C          29.4798   29.2522    3.4730 C.2       6 UNK         0.5070 
     43 O          30.6992   29.3640    3.6254 O.2       6 UNK        -0.5237 
     44 N          28.7073   28.3934    4.1518 N.am      7 UNK        -0.4739 
     45 CA         29.1930   27.4084    5.1243 C.3       7 UNK         0.0276 
     46 CB         28.0075   26.6064    5.6841 C.3       7 UNK        -0.1927 
     47 C          29.9968   28.0639    6.2573 C.2       7 UNK         0.5013 
     48 O          29.4783   28.9622    6.9247 O.2       7 UNK        -0.5193 
     49 N          31.2618   27.6451    6.3994 N.am      8 UNK        -0.4253 
     50 CA         32.3201   28.1954    7.2597 C.3       8 UNK         0.0242 
     51 CB         31.9444   28.1253    8.7527 C.3       8 UNK        -0.2000 
     52 C          32.7778   29.6130    6.8656 C.2       8 UNK         0.4948 
     53 O          33.9824   29.8520    6.8002 O.2       8 UNK        -0.5275 
     54 N          31.8291   30.5168    6.5898 N.am      9 UNK        -0.4246 
     55 CA         32.0418   31.9247    6.2439 C.3       9 UNK         0.0261 
     56 CB         30.6812   32.6108    6.0516 C.3       9 UNK        -0.1959 
     57 C          32.9442   32.1511    5.0190 C.2       9 UNK         0.5033 
     58 O          33.7730   33.0622    5.0490 O.2       9 UNK        -0.5390 
     59 N          32.8122   31.3046    3.9867 N.am      10 UNK        -0.4215 
     60 CA         33.6617   31.3337    2.7893 C.3       10 UNK         0.0240 
     61 CB         33.0072   30.4929    1.6810 C.3       10 UNK        -0.1982 
     62 C          35.1124   30.8714    3.0352 C.2       10 UNK         0.4970 
     63 O          35.9638   31.1084    2.1775 O.2       10 UNK        -0.4916 
     64 N          35.3672   30.2239    4.1782 N.am      11 UNK        -0.4279 
     65 CA         36.6754   29.7080    4.6020 C.3       11 UNK         0.1003 
     66 C          37.3799   30.6305    5.6393 C.2       11 UNK         0.5709 
     67 N          36.8215   31.7794    6.0065 N.am      11 UNK        -0.7358 
     68 O          38.4724   30.3121    6.1035 O.2       11 UNK        -0.4999 
     69 C69        36.5555   28.2439    5.1090 C.3       12 UNK        -0.0954 
     70 S70        36.0366   27.0925    3.7924 S.3       12 UNK        -0.2268 
     71 C71        34.2306   27.0480    4.0320 C.3       12 UNK         0.0203 
     72 H72        25.6400   28.0714    3.1246 H         1 UNK         0.0888 
     73 H73        26.4206   27.9033    1.5461 H         1 UNK         0.0888 
     74 H74        24.6748   27.7091    1.6925 H         1 UNK         0.0888 
     75 H75        27.3178   25.9051    1.1105 H         1 UNK         0.3017 
     76 H76        26.7083   23.5382    2.7834 H         1 UNK         0.0873 
     77 H77        28.8862   24.1496    0.7141 H         1 UNK         0.0745 
     78 H78        28.5877   22.5356    1.3260 H         1 UNK         0.0745 
     79 H79        31.5760   22.7740    3.3157 H         1 UNK         0.0705 
     80 H80        31.0393   22.6801    1.6599 H         1 UNK         0.0705 
     81 H81        32.5643   24.8900    4.2206 H         1 UNK         0.1334 
     82 H82        34.3192   27.5531    1.3582 H         1 UNK         0.1417 
     83 H83        31.7070   24.4125    0.0459 H         1 UNK         0.1562 
     84 H84        33.7723   25.7044   -1.4462 H         1 UNK         0.0748 
     85 H85        33.8760   27.3710   -0.9378 H         1 UNK         0.0748 
     86 H86        31.5479   28.5296   -0.0696 H         1 UNK         0.0940 
     87 H87        30.4342   27.2096    0.2341 H         1 UNK         0.0940 
     88 H88        30.0829   29.5049   -1.7635 H         1 UNK         0.0703 
     89 H89        28.8016   28.1947   -2.9872 H         1 UNK         0.3081 
     90 H90        27.1866   26.8079   -3.6331 H         1 UNK         0.0719 
     91 H91        28.4095   24.2930   -2.3662 H         1 UNK         0.0809 
     92 H92        27.7954   24.4127   -4.0149 H         1 UNK         0.0809 
     93 H93        29.2029   25.3457   -3.5293 H         1 UNK         0.0809 
     94 H94        26.0994   24.8596   -1.6477 H         1 UNK         0.2990 
     95 H95        23.0125   26.0490   -1.6603 H         1 UNK         0.0690 
     96 H96        21.7542   24.4408   -3.1047 H         1 UNK         0.0788 
     97 H97        23.1970   24.1658   -4.0800 H         1 UNK         0.0788 
     98 H98        22.4190   25.7436   -4.0724 H         1 UNK         0.0788 
     99 H99        24.7724   23.7174   -1.5651 H         1 UNK         0.2993 
    100 H100       22.9360   22.2401    1.1081 H         1 UNK         0.0949 
    101 H101       23.1039   20.9672   -1.0153 H         1 UNK         0.0767 
    102 H102       24.7695   21.4753   -1.2322 H         1 UNK         0.0767 
    103 H103       24.3301   20.4519    0.1304 H         1 UNK         0.0767 
    104 H104       24.6767   23.0646    2.1666 H         1 UNK         0.3013 
    105 H105       30.3488   29.2372    1.2906 H         1 UNK         0.3121 
    106 H106       27.7303   29.8636    2.3596 H         1 UNK         0.0774 
    107 H107       28.5125   31.9387    3.4762 H         1 UNK         0.0815 
    108 H108       28.6000   32.1556    1.7373 H         1 UNK         0.0815 
    109 H109       30.0693   31.8487    2.6585 H         1 UNK         0.0815 
    110 H110       27.7140   28.3940    3.9802 H         1 UNK         0.2987 
    111 H111       29.8435   26.7169    4.5835 H         1 UNK         0.0949 
    112 H112       27.2738   27.2524    6.1681 H         1 UNK         0.0806 
    113 H113       27.5010   26.0458    4.8989 H         1 UNK         0.0806 
    114 H114       28.3435   25.8810    6.4263 H         1 UNK         0.0806 
    115 H115       31.5730   26.9218    5.7672 H         1 UNK         0.3010 
    116 H116       33.1830   27.5432    7.1171 H         1 UNK         0.0829 
    117 H117       31.1047   28.7761    8.9979 H         1 UNK         0.0813 
    118 H118       31.6787   27.1100    9.0472 H         1 UNK         0.0813 
    119 H119       32.7835   28.4347    9.3772 H         1 UNK         0.0813 
    120 H120       30.8654   30.1999    6.6662 H         1 UNK         0.3038 
    121 H121       32.5382   32.3904    7.0976 H         1 UNK         0.0769 
    122 H122       30.8036   33.6588    5.7740 H         1 UNK         0.0811 
    123 H123       30.0982   32.1283    5.2680 H         1 UNK         0.0811 
    124 H124       30.0921   32.5856    6.9686 H         1 UNK         0.0811 
    125 H125       32.0937   30.5825    4.0220 H         1 UNK         0.3204 
    126 H126       33.7147   32.3667    2.4388 H         1 UNK         0.0748 
    127 H127       32.8577   29.4612    1.9983 H         1 UNK         0.0771 
    128 H128       32.0390   30.9044    1.3979 H         1 UNK         0.0771 
    129 H129       33.6236   30.4738    0.7811 H         1 UNK         0.0771 
    130 H130       34.6333   30.1285    4.8705 H         1 UNK         0.2980 
    131 H131       37.3473   29.6943    3.7422 H         1 UNK         0.0545 
    132 H132       37.2966   32.3665    6.6732 H         1 UNK         0.3459 
    133 H133       35.9254   32.0592    5.6350 H         1 UNK         0.3459 
    134 H134       37.5195   27.8866    5.4753 H         1 UNK         0.0616 
    135 H135       35.8680   28.1733    5.9529 H         1 UNK         0.0616 
    136 H136       34.0230   26.5851    4.9972 H         1 UNK         0.0634 
    137 H137       33.8270   28.0588    4.0770 H         1 UNK         0.0634 
@<TRIPOS>BOND
     1    1    2 1    
     2    1   72 1    
     3    1   73 1    
     4    1   74 1    
     5    2    3 2    
     6    2    4 am   BACKBONE|DICT|INTERRES
     7    4    5 1    
     8    4   75 1    
     9    5    6 1    
    10    5   35 1    
    11    5   76 1    
    12    6    7 1    
    13    6   77 1    
    14    6   78 1    
    15    7    8 1    
    16    8    9 1    
    17    8   79 1    
    18    8   80 1    
    19    9   10 ar   
    20    9   14 ar   
    21   10   11 ar   
    22   10   81 1    
    23   11   12 ar   
    24   11   71 1    
    25   12   13 ar   
    26   12   82 1    
    27   13   14 ar   
    28   13   15 1    
    29   14   83 1    
    30   15   16 1    
    31   15   84 1    
    32   15   85 1    
    33   16   17 1    
    34   17   18 1    
    35   17   86 1    
    36   17   87 1    
    37   18   19 1    
    38   18   37 1    
    39   18   88 1    
    40   19   20 am   BACKBONE|DICT|INTERRES
    41   19   89 1    
    42   20   21 2    
    43   20   22 1    
    44   22   23 1    
    45   22   24 1    
    46   22   90 1    
    47   23   91 1    
    48   23   92 1    
    49   23   93 1    
    50   24   25 am   BACKBONE|DICT|INTERRES
    51   24   94 1    
    52   25   26 2    
    53   25   27 1    
    54   27   28 1    
    55   27   29 1    
    56   27   95 1    
    57   28   96 1    
    58   28   97 1    
    59   28   98 1    
    60   29   30 am   BACKBONE|DICT|INTERRES
    61   29   99 1    
    62   30   31 2    
    63   30   32 1    
    64   32   33 1    
    65   32   34 1    
    66   32  100 1    
    67   33  101 1    
    68   33  102 1    
    69   33  103 1    
    70   34   35 am   BACKBONE|DICT|INTERRES
    71   34  104 1    
    72   35   36 2    
    73   37   38 2    
    74   37   39 am   BACKBONE|DICT|INTERRES
    75   39   40 1    
    76   39  105 1    
    77   40   41 1    
    78   40   42 1    
    79   40  106 1    
    80   41  107 1    
    81   41  108 1    
    82   41  109 1    
    83   42   43 2    
    84   42   44 am   BACKBONE|DICT|INTERRES
    85   44   45 1    
    86   44  110 1    
    87   45   46 1    
    88   45   47 1    
    89   45  111 1    
    90   46  112 1    
    91   46  113 1    
    92   46  114 1    
    93   47   48 2    
    94   47   49 am   BACKBONE|DICT|INTERRES
    95   49   50 1    
    96   49  115 1    
    97   50   51 1    
    98   50   52 1    
    99   50  116 1    
   100   51  117 1    
   101   51  118 1    
   102   51  119 1    
   103   52   53 2    
   104   52   54 am   BACKBONE|DICT|INTERRES
   105   54   55 1    
   106   54  120 1    
   107   55   56 1    
   108   55   57 1    
   109   55  121 1    
   110   56  122 1    
   111   56  123 1    
   112   56  124 1    
   113   57   58 2    
   114   57   59 am   BACKBONE|DICT|INTERRES
   115   59   60 1    
   116   59  125 1    
   117   60   61 1    
   118   60   62 1    
   119   60  126 1    
   120   61  127 1    
   121   61  128 1    
   122   61  129 1    
   123   62   63 2    
   124   62   64 am   BACKBONE|DICT|INTERRES
   125   64   65 1    
   126   64  130 1    
   127   65   66 1    
   128   65   69 1    
   129   65  131 1    
   130   66   67 am   BACKBONE|DICT|INTERRES
   131   66   68 2    
   132   67  132 1    
   133   67  133 1    
   134   69   70 1    
   135   69  134 1    
   136   69  135 1    
   137   70   71 1    
   138   71  136 1    
   139   71  137 1    
@<TRIPOS>SUBSTRUCTURE
     1 UNK         1 GROUP             0       ****    0 ROOT    
