@<TRIPOS>MOLECULE
3R136
137   139    1
SMALL
USER_CHARGES


@<TRIPOS>ATOM
      1 CA         25.0313   29.5756    3.9389 C.3       0 UNK        -0.1979 
      2 C          25.2984   28.5641    2.8349 C.2       0 UNK         0.4864 
      3 O          24.5779   27.5703    2.7247 O.2       0 UNK        -0.5359 
      4 N          26.3322   28.8041    2.0188 N.am      1 UNK        -0.4318 
      5 CA         26.7837   27.9320    0.9285 C.3       1 UNK         0.0824 
      6 C6         28.2659   28.1991    0.5665 C.3       12 UNK        -0.0944 
      7 S7         29.3678   27.7583    1.9445 S.3       12 UNK        -0.2672 
      8 C8         30.9991   27.8698    1.1486 C.3       12 UNK         0.0333 
      9 C9         31.9427   26.8428    1.7492 C.ar      12 UNK        -0.0807 
     10 C10        32.3287   26.9393    3.0884 C.ar      12 UNK        -0.0894 
     11 C11        33.1283   25.9511    3.6733 C.ar      12 UNK        -0.0804 
     12 C12        33.5312   24.8562    2.9012 C.ar      12 UNK        -0.0824 
     13 C13        33.1533   24.7493    1.5582 C.ar      12 UNK        -0.0762 
     14 C14        32.3843   25.7636    0.9812 C.ar      12 UNK        -0.0782 
     15 C15        33.5523   23.5211    0.7450 C.3       12 UNK         0.0230 
     16 S16        32.1447   22.7270   -0.1135 S.3       12 UNK        -0.2608 
     17 C17        30.9407   22.4792    1.2376 C.3       12 UNK        -0.0989 
     18 CA         29.7066   23.4038    1.0794 C.3       5 UNK         0.0716 
     19 N          28.8974   23.0571   -0.0928 N.am      5 UNK        -0.4135 
     20 C          27.9344   23.8371   -0.5978 C.2       4 UNK         0.5031 
     21 O          27.6580   24.9594   -0.1658 O.2       4 UNK        -0.5229 
     22 CA         27.1349   23.2742   -1.7778 C.3       4 UNK         0.0329 
     23 CB         26.0797   22.2606   -1.2952 C.3       4 UNK        -0.2001 
     24 N          26.4853   24.3985   -2.4427 N.am      4 UNK        -0.4303 
     25 C          25.9807   24.4210   -3.6797 C.2       3 UNK         0.5044 
     26 O          25.9908   23.4475   -4.4357 O.2       3 UNK        -0.5152 
     27 CA         25.3904   25.7647   -4.1609 C.3       3 UNK         0.0319 
     28 CB         24.3190   25.5866   -5.2585 C.3       3 UNK        -0.2001 
     29 N          24.8928   26.6254   -3.0761 N.am      3 UNK        -0.4354 
     30 C          23.8827   26.3755   -2.2293 C.2       2 UNK         0.4964 
     31 O          23.2204   25.3364   -2.2325 O.2       2 UNK        -0.5047 
     32 CA         23.5867   27.4738   -1.1885 C.3       2 UNK         0.0288 
     33 CB         22.2181   27.2882   -0.5066 C.3       2 UNK        -0.2113 
     34 N          24.6207   27.5305   -0.1540 N.am      2 UNK        -0.4145 
     35 C          25.8537   28.0309   -0.2998 C.2       1 UNK         0.5006 
     36 O          26.2494   28.5565   -1.3439 O.2       1 UNK        -0.5103 
     37 C          28.8446   23.3958    2.3556 C.2       5 UNK         0.5055 
     38 O          28.0812   22.4509    2.5719 O.2       5 UNK        -0.5220 
     39 N          29.0008   24.4383    3.1754 N.am      6 UNK        -0.4450 
     40 CA         28.2975   24.6354    4.4370 C.3       6 UNK         0.0367 
     41 CB         26.9425   25.3287    4.1820 C.3       6 UNK        -0.1929 
     42 C          29.2425   25.4061    5.3652 C.2       6 UNK         0.5070 
     43 O          30.1798   24.8066    5.8907 O.2       6 UNK        -0.5237 
     44 N          29.0098   26.7112    5.5266 N.am      7 UNK        -0.4739 
     45 CA         29.8755   27.6533    6.2249 C.3       7 UNK         0.0276 
     46 CB         29.6050   27.6165    7.7391 C.3       7 UNK        -0.1927 
     47 C          29.6031   29.0422    5.6419 C.2       7 UNK         0.5013 
     48 O          28.4418   29.3627    5.3732 O.2       7 UNK        -0.5193 
     49 N          30.6641   29.8335    5.4611 N.am      8 UNK        -0.4253 
     50 CA         30.6494   31.1790    4.8923 C.3       8 UNK         0.0242 
     51 CB         30.2678   31.1327    3.3959 C.3       8 UNK        -0.2000 
     52 C          32.0454   31.7884    5.0686 C.2       8 UNK         0.4948 
     53 O          32.9770   31.0883    5.4780 O.2       8 UNK        -0.5275 
     54 N          32.1935   33.0632    4.6815 N.am      9 UNK        -0.4246 
     55 CA         33.4604   33.8114    4.6655 C.3       9 UNK         0.0261 
     56 CB         33.1792   35.2641    4.2468 C.3       9 UNK        -0.1959 
     57 C          34.5657   33.1984    3.7779 C.2       9 UNK         0.5033 
     58 O          35.7334   33.5540    3.9405 O.2       9 UNK        -0.5390 
     59 N          34.1879   32.2743    2.8825 N.am      10 UNK        -0.4215 
     60 CA         35.0828   31.4240    2.0961 C.3       10 UNK         0.0240 
     61 CB         34.2477   30.6222    1.0840 C.3       10 UNK        -0.1982 
     62 C          35.9405   30.4669    2.9483 C.2       10 UNK         0.4970 
     63 O          37.0167   30.0810    2.4893 O.2       10 UNK        -0.4916 
     64 N          35.4682   30.1073    4.1503 N.am      11 UNK        -0.4279 
     65 CA         36.1922   29.2702    5.1184 C.3       11 UNK         0.1003 
     66 C          36.2927   29.9020    6.5352 C.2       11 UNK         0.5709 
     67 N          35.4123   30.8164    6.9257 N.am      11 UNK        -0.7358 
     68 O          37.2073   29.5729    7.2873 O.2       11 UNK        -0.4999 
     69 C69        35.6517   27.8164    5.1489 C.3       12 UNK        -0.0954 
     70 S70        33.9325   27.6758    5.7446 S.3       12 UNK        -0.2268 
     71 C71        33.4991   26.0083    5.1531 C.3       12 UNK         0.0203 
     72 H72        24.0553   30.0389    3.7977 H         1 UNK         0.0888 
     73 H73        25.0387   29.0792    4.9090 H         1 UNK         0.0888 
     74 H74        25.7853   30.3626    3.9603 H         1 UNK         0.0888 
     75 H75        26.8869   29.6359    2.1597 H         1 UNK         0.3017 
     76 H76        26.7159   26.8996    1.2777 H         1 UNK         0.0873 
     77 H77        28.5573   27.6002   -0.2988 H         1 UNK         0.0745 
     78 H78        28.4263   29.2440    0.2946 H         1 UNK         0.0745 
     79 H79        30.9008   27.7127    0.0735 H         1 UNK         0.0705 
     80 H80        31.4043   28.8725    1.2771 H         1 UNK         0.0705 
     81 H81        31.9749   27.7715    3.6804 H         1 UNK         0.1334 
     82 H82        34.1235   24.0730    3.3547 H         1 UNK         0.1417 
     83 H83        32.0844   25.6804   -0.0548 H         1 UNK         0.1562 
     84 H84        34.0306   22.7756    1.3823 H         1 UNK         0.0748 
     85 H85        34.2968   23.8150    0.0041 H         1 UNK         0.0748 
     86 H86        31.4383   22.6526    2.1940 H         1 UNK         0.0940 
     87 H87        30.6371   21.4306    1.2491 H         1 UNK         0.0940 
     88 H88        30.0567   24.4260    0.9294 H         1 UNK         0.0703 
     89 H89        29.0530   22.1423   -0.4890 H         1 UNK         0.3081 
     90 H90        27.8257   22.7947   -2.4744 H         1 UNK         0.0719 
     91 H91        25.3682   22.7210   -0.6083 H         1 UNK         0.0809 
     92 H92        25.5153   21.8440   -2.1295 H         1 UNK         0.0809 
     93 H93        26.5451   21.4244   -0.7721 H         1 UNK         0.0809 
     94 H94        26.4804   25.2452   -1.8867 H         1 UNK         0.2990 
     95 H95        26.2249   26.3065   -4.6083 H         1 UNK         0.0690 
     96 H96        23.9320   26.5481   -5.5956 H         1 UNK         0.0788 
     97 H97        23.4767   24.9888   -4.9091 H         1 UNK         0.0788 
     98 H98        24.7330   25.0825   -6.1327 H         1 UNK         0.0788 
     99 H99        25.4155   27.4820   -2.9201 H         1 UNK         0.2993 
    100 H100       23.5669   28.4301   -1.7162 H         1 UNK         0.0949 
    101 H101       22.1764   26.3650    0.0731 H         1 UNK         0.0767 
    102 H102       21.9968   28.1159    0.1678 H         1 UNK         0.0767 
    103 H103       21.4157   27.2485   -1.2446 H         1 UNK         0.0767 
    104 H104       24.3735   27.1748    0.7649 H         1 UNK         0.3013 
    105 H105       29.6700   25.1594    2.9357 H         1 UNK         0.3121 
    106 H106       28.1103   23.6683    4.9089 H         1 UNK         0.0774 
    107 H107       26.4251   25.5441    5.1177 H         1 UNK         0.0815 
    108 H108       26.2828   24.6945    3.5897 H         1 UNK         0.0815 
    109 H109       27.0615   26.2669    3.6410 H         1 UNK         0.0815 
    110 H110       28.2383   27.1484    5.0372 H         1 UNK         0.2987 
    111 H111       30.9168   27.3875    6.0358 H         1 UNK         0.0949 
    112 H112       29.8131   26.6311    8.1560 H         1 UNK         0.0806 
    113 H113       30.2389   28.3312    8.2654 H         1 UNK         0.0806 
    114 H114       28.5682   27.8659    7.9681 H         1 UNK         0.0806 
    115 H115       31.5893   29.5298    5.7451 H         1 UNK         0.3010 
    116 H116       29.9306   31.7876    5.4446 H         1 UNK         0.0829 
    117 H117       30.2260   32.1311    2.9597 H         1 UNK         0.0813 
    118 H118       30.9893   30.5539    2.8205 H         1 UNK         0.0813 
    119 H119       29.2866   30.6854    3.2394 H         1 UNK         0.0813 
    120 H120       31.3786   33.5636    4.3552 H         1 UNK         0.3038 
    121 H121       33.8457   33.8185    5.6873 H         1 UNK         0.0769 
    122 H122       32.7663   35.3211    3.2388 H         1 UNK         0.0811 
    123 H123       34.0941   35.8586    4.2575 H         1 UNK         0.0811 
    124 H124       32.4767   35.7459    4.9271 H         1 UNK         0.0811 
    125 H125       33.2021   32.0738    2.8130 H         1 UNK         0.3204 
    126 H126       35.7638   32.0767    1.5461 H         1 UNK         0.0748 
    127 H127       34.8894   30.0163    0.4425 H         1 UNK         0.0771 
    128 H128       33.5563   29.9429    1.5838 H         1 UNK         0.0771 
    129 H129       33.6686   31.2780    0.4334 H         1 UNK         0.0771 
    130 H130       34.5738   30.4645    4.4673 H         1 UNK         0.2980 
    131 H131       37.2320   29.1982    4.7944 H         1 UNK         0.0545 
    132 H132       34.5848   31.0138    6.3712 H         1 UNK         0.3459 
    133 H133       35.5058   31.2206    7.8431 H         1 UNK         0.3459 
    134 H134       36.2854   27.1895    5.7786 H         1 UNK         0.0616 
    135 H135       35.7092   27.3883    4.1468 H         1 UNK         0.0616 
    136 H136       34.3287   25.3340    5.3711 H         1 UNK         0.0634 
    137 H137       32.6530   25.6462    5.7354 H         1 UNK         0.0634 
@<TRIPOS>BOND
     1    1    2 1    
     2    1   72 1    
     3    1   73 1    
     4    1   74 1    
     5    2    3 2    
     6    2    4 am   BACKBONE|DICT|INTERRES
     7    4    5 1    
     8    4   75 1    
     9    5    6 1    
    10    5   35 1    
    11    5   76 1    
    12    6    7 1    
    13    6   77 1    
    14    6   78 1    
    15    7    8 1    
    16    8    9 1    
    17    8   79 1    
    18    8   80 1    
    19    9   10 ar   
    20    9   14 ar   
    21   10   11 ar   
    22   10   81 1    
    23   11   12 ar   
    24   11   71 1    
    25   12   13 ar   
    26   12   82 1    
    27   13   14 ar   
    28   13   15 1    
    29   14   83 1    
    30   15   16 1    
    31   15   84 1    
    32   15   85 1    
    33   16   17 1    
    34   17   18 1    
    35   17   86 1    
    36   17   87 1    
    37   18   19 1    
    38   18   37 1    
    39   18   88 1    
    40   19   20 am   BACKBONE|DICT|INTERRES
    41   19   89 1    
    42   20   21 2    
    43   20   22 1    
    44   22   23 1    
    45   22   24 1    
    46   22   90 1    
    47   23   91 1    
    48   23   92 1    
    49   23   93 1    
    50   24   25 am   BACKBONE|DICT|INTERRES
    51   24   94 1    
    52   25   26 2    
    53   25   27 1    
    54   27   28 1    
    55   27   29 1    
    56   27   95 1    
    57   28   96 1    
    58   28   97 1    
    59   28   98 1    
    60   29   30 am   BACKBONE|DICT|INTERRES
    61   29   99 1    
    62   30   31 2    
    63   30   32 1    
    64   32   33 1    
    65   32   34 1    
    66   32  100 1    
    67   33  101 1    
    68   33  102 1    
    69   33  103 1    
    70   34   35 am   BACKBONE|DICT|INTERRES
    71   34  104 1    
    72   35   36 2    
    73   37   38 2    
    74   37   39 am   BACKBONE|DICT|INTERRES
    75   39   40 1    
    76   39  105 1    
    77   40   41 1    
    78   40   42 1    
    79   40  106 1    
    80   41  107 1    
    81   41  108 1    
    82   41  109 1    
    83   42   43 2    
    84   42   44 am   BACKBONE|DICT|INTERRES
    85   44   45 1    
    86   44  110 1    
    87   45   46 1    
    88   45   47 1    
    89   45  111 1    
    90   46  112 1    
    91   46  113 1    
    92   46  114 1    
    93   47   48 2    
    94   47   49 am   BACKBONE|DICT|INTERRES
    95   49   50 1    
    96   49  115 1    
    97   50   51 1    
    98   50   52 1    
    99   50  116 1    
   100   51  117 1    
   101   51  118 1    
   102   51  119 1    
   103   52   53 2    
   104   52   54 am   BACKBONE|DICT|INTERRES
   105   54   55 1    
   106   54  120 1    
   107   55   56 1    
   108   55   57 1    
   109   55  121 1    
   110   56  122 1    
   111   56  123 1    
   112   56  124 1    
   113   57   58 2    
   114   57   59 am   BACKBONE|DICT|INTERRES
   115   59   60 1    
   116   59  125 1    
   117   60   61 1    
   118   60   62 1    
   119   60  126 1    
   120   61  127 1    
   121   61  128 1    
   122   61  129 1    
   123   62   63 2    
   124   62   64 am   BACKBONE|DICT|INTERRES
   125   64   65 1    
   126   64  130 1    
   127   65   66 1    
   128   65   69 1    
   129   65  131 1    
   130   66   67 am   BACKBONE|DICT|INTERRES
   131   66   68 2    
   132   67  132 1    
   133   67  133 1    
   134   69   70 1    
   135   69  134 1    
   136   69  135 1    
   137   70   71 1    
   138   71  136 1    
   139   71  137 1    
@<TRIPOS>SUBSTRUCTURE
     1 UNK         1 GROUP             0       ****    0 ROOT    
