@<TRIPOS>MOLECULE
3R136
137   139    1
SMALL
USER_CHARGES


@<TRIPOS>ATOM
      1 CA         33.6631   23.1448   -3.9249 C.3       0 UNK        -0.1979 
      2 C          32.5440   23.9589   -3.2921 C.2       0 UNK         0.4864 
      3 O          32.0946   24.9405   -3.8846 O.2       0 UNK        -0.5359 
      4 N          32.0972   23.5601   -2.0927 N.am      1 UNK        -0.4318 
      5 CA         31.0106   24.2001   -1.3420 C.3       1 UNK         0.0824 
      6 C6         30.9661   23.6785    0.1177 C.3       12 UNK        -0.0944 
      7 S7         29.8336   24.6170    1.1980 S.3       12 UNK        -0.2672 
      8 C8         30.7373   24.5606    2.7764 C.3       12 UNK         0.0333 
      9 C9         29.9500   25.2350    3.8896 C.ar      12 UNK        -0.0807 
     10 C10        30.4477   26.3788    4.5201 C.ar      12 UNK        -0.0894 
     11 C11        29.7250   26.9963    5.5455 C.ar      12 UNK        -0.0804 
     12 C12        28.4858   26.4744    5.9273 C.ar      12 UNK        -0.0824 
     13 C13        27.9706   25.3404    5.2910 C.ar      12 UNK        -0.0762 
     14 C14        28.7170   24.7130    4.2899 C.ar      12 UNK        -0.0782 
     15 C15        26.5887   24.8143    5.6462 C.3       12 UNK         0.0230 
     16 S16        25.3939   25.1362    4.3066 S.3       12 UNK        -0.2608 
     17 C17        25.3716   26.9614    4.2608 C.3       12 UNK        -0.0989 
     18 CA         26.2938   27.5496    3.1604 C.3       5 UNK         0.0716 
     19 N          25.9009   27.1122    1.8191 N.am      5 UNK        -0.4135 
     20 C          26.5495   27.3792    0.6779 C.2       4 UNK         0.5031 
     21 O          27.5763   28.0558    0.6055 O.2       4 UNK        -0.5229 
     22 CA         25.9688   26.7291   -0.5889 C.3       4 UNK         0.0329 
     23 CB         26.5139   27.3597   -1.8836 C.3       4 UNK        -0.2001 
     24 N          26.2649   25.2958   -0.5845 N.am      4 UNK        -0.4303 
     25 C          25.5402   24.3748    0.0689 C.2       3 UNK         0.5044 
     26 O          24.5078   24.6541    0.6823 O.2       3 UNK        -0.5152 
     27 CA         26.0514   22.9169    0.0815 C.3       3 UNK         0.0319 
     28 CB         24.9011   21.8877    0.0933 C.3       3 UNK        -0.2001 
     29 N          27.0280   22.6041   -0.9694 N.am      3 UNK        -0.4354 
     30 C          26.8453   22.6277   -2.3000 C.2       2 UNK         0.4964 
     31 O          25.7598   22.8458   -2.8401 O.2       2 UNK        -0.5047 
     32 CA         28.1028   22.3902   -3.1691 C.3       2 UNK         0.0288 
     33 CB         27.9810   23.0282   -4.5698 C.3       2 UNK        -0.2113 
     34 N          29.3595   22.8111   -2.5257 N.am      2 UNK        -0.4145 
     35 C          29.6467   24.0340   -2.0458 C.2       1 UNK         0.5006 
     36 O          28.8764   24.9922   -2.1102 O.2       1 UNK        -0.5103 
     37 C          26.3577   29.0865    3.2643 C.2       5 UNK         0.5055 
     38 O          25.3134   29.7414    3.3007 O.2       5 UNK        -0.5220 
     39 N          27.5795   29.6222    3.3161 N.am      6 UNK        -0.4450 
     40 CA         27.9125   31.0345    3.4508 C.3       6 UNK         0.0367 
     41 CB         27.6826   31.7719    2.1185 C.3       6 UNK        -0.1929 
     42 C          29.3854   31.1054    3.8572 C.2       6 UNK         0.5070 
     43 O          30.1476   30.1974    3.5168 O.2       6 UNK        -0.5237 
     44 N          29.7798   32.1826    4.5486 N.am      7 UNK        -0.4739 
     45 CA         31.1393   32.3857    5.0703 C.3       7 UNK         0.0276 
     46 CB         31.2065   33.7115    5.8431 C.3       7 UNK        -0.1927 
     47 C          32.2439   32.3220    4.0019 C.2       7 UNK         0.5013 
     48 O          33.3186   31.7860    4.2735 O.2       7 UNK        -0.5193 
     49 N          31.9330   32.8021    2.7914 N.am      8 UNK        -0.4253 
     50 CA         32.8031   32.7446    1.6157 C.3       8 UNK         0.0242 
     51 CB         32.1560   33.5490    0.4761 C.3       8 UNK        -0.2000 
     52 C          33.1399   31.3172    1.1403 C.2       8 UNK         0.4948 
     53 O          34.1462   31.1509    0.4495 O.2       8 UNK        -0.5275 
     54 N          32.3145   30.3200    1.4972 N.am      9 UNK        -0.4246 
     55 CA         32.5250   28.9216    1.1222 C.3       9 UNK         0.0261 
     56 CB         31.1910   28.1603    1.1671 C.3       9 UNK        -0.1959 
     57 C          33.5866   28.2165    1.9835 C.2       9 UNK         0.5033 
     58 O          34.2320   27.3014    1.4707 O.2       9 UNK        -0.5390 
     59 N          33.7654   28.6419    3.2459 N.am      10 UNK        -0.4215 
     60 CA         34.7717   28.1034    4.1720 C.3       10 UNK         0.0240 
     61 CB         34.5340   26.6082    4.4910 C.3       10 UNK        -0.1982 
     62 C          34.8370   28.8806    5.4932 C.2       10 UNK         0.4970 
     63 O          35.9383   29.1446    5.9761 O.2       10 UNK        -0.4916 
     64 N          33.6681   29.1569    6.0872 N.am      11 UNK        -0.4279 
     65 CA         33.5234   29.5858    7.4914 C.3       11 UNK         0.1003 
     66 C          34.1046   30.9833    7.8542 C.2       11 UNK         0.5709 
     67 N          34.3668   31.8683    6.9025 N.am      11 UNK        -0.7358 
     68 O          34.3296   31.2643    9.0291 O.2       11 UNK        -0.4999 
     69 C69        32.0616   29.4470    8.0003 C.3       12 UNK        -0.0954 
     70 S70        31.3206   27.8159    7.6478 S.3       12 UNK        -0.2268 
     71 C71        30.2758   28.2394    6.2227 C.3       12 UNK         0.0203 
     72 H72        33.3382   22.7433   -4.8844 H         1 UNK         0.0888 
     73 H73        33.9685   22.3100   -3.2942 H         1 UNK         0.0888 
     74 H74        34.5347   23.7758   -4.0968 H         1 UNK         0.0888 
     75 H75        32.5222   22.7550   -1.6546 H         1 UNK         0.3017 
     76 H76        31.2279   25.2705   -1.3103 H         1 UNK         0.0873 
     77 H77        30.6860   22.6240    0.1521 H         1 UNK         0.0745 
     78 H78        31.9681   23.7355    0.5465 H         1 UNK         0.0745 
     79 H79        30.9274   23.5216    3.0495 H         1 UNK         0.0705 
     80 H80        31.7113   25.0363    2.6483 H         1 UNK         0.0705 
     81 H81        31.3970   26.7917    4.2116 H         1 UNK         0.1334 
     82 H82        27.9170   26.9616    6.7076 H         1 UNK         0.1417 
     83 H83        28.3188   23.8386    3.7929 H         1 UNK         0.1562 
     84 H84        26.2248   25.2591    6.5738 H         1 UNK         0.0748 
     85 H85        26.6446   23.7391    5.8223 H         1 UNK         0.0748 
     86 H86        25.6517   27.3427    5.2446 H         1 UNK         0.0940 
     87 H87        24.3397   27.2812    4.1025 H         1 UNK         0.0940 
     88 H88        27.3020   27.1647    3.3220 H         1 UNK         0.0703 
     89 H89        25.1046   26.4882    1.7725 H         1 UNK         0.3081 
     90 H90        24.8871   26.8798   -0.5822 H         1 UNK         0.0719 
     91 H91        27.5998   27.2847   -1.9477 H         1 UNK         0.0809 
     92 H92        26.0933   26.8790   -2.7670 H         1 UNK         0.0809 
     93 H93        26.2596   28.4189   -1.9352 H         1 UNK         0.0809 
     94 H94        27.1264   25.0183   -1.0448 H         1 UNK         0.2990 
     95 H95        26.5911   22.8103    1.0238 H         1 UNK         0.0690 
     96 H96        25.2815   20.8667    0.1226 H         1 UNK         0.0788 
     97 H97        24.2619   21.9838   -0.7848 H         1 UNK         0.0788 
     98 H98        24.2666   22.0194    0.9707 H         1 UNK         0.0788 
     99 H99        27.9642   22.4189   -0.6384 H         1 UNK         0.2993 
    100 H100       28.1716   21.3095   -3.3033 H         1 UNK         0.0949 
    101 H101       27.1293   22.6206   -5.1158 H         1 UNK         0.0767 
    102 H102       27.8429   24.1085   -4.5101 H         1 UNK         0.0767 
    103 H103       28.8701   22.8374   -5.1709 H         1 UNK         0.0767 
    104 H104       30.0599   22.0898   -2.4225 H         1 UNK         0.3013 
    105 H105       28.3974   29.0252    3.2589 H         1 UNK         0.3121 
    106 H106       27.2991   31.4760    4.2388 H         1 UNK         0.0774 
    107 H107       26.6347   31.7405    1.8204 H         1 UNK         0.0815 
    108 H108       28.2708   31.3320    1.3116 H         1 UNK         0.0815 
    109 H109       27.9637   32.8228    2.1958 H         1 UNK         0.0815 
    110 H110       29.0972   32.8926    4.7752 H         1 UNK         0.2987 
    111 H111       31.3380   31.5750    5.7708 H         1 UNK         0.0949 
    112 H112       30.9745   34.5648    5.2046 H         1 UNK         0.0806 
    113 H113       30.5095   33.7184    6.6813 H         1 UNK         0.0806 
    114 H114       32.2038   33.8739    6.2547 H         1 UNK         0.0806 
    115 H115       31.0161   33.2046    2.6632 H         1 UNK         0.3010 
    116 H116       33.7473   33.2246    1.8821 H         1 UNK         0.0829 
    117 H117       31.9966   34.5887    0.7631 H         1 UNK         0.0813 
    118 H118       32.7934   33.5545   -0.4093 H         1 UNK         0.0813 
    119 H119       31.1935   33.1286    0.1816 H         1 UNK         0.0813 
    120 H120       31.5159   30.5127    2.0946 H         1 UNK         0.3038 
    121 H121       32.8766   28.8965    0.0882 H         1 UNK         0.0769 
    122 H122       30.7996   28.0747    2.1798 H         1 UNK         0.0811 
    123 H123       31.3153   27.1481    0.7823 H         1 UNK         0.0811 
    124 H124       30.4296   28.6454    0.5559 H         1 UNK         0.0811 
    125 H125       33.2726   29.4740    3.5465 H         1 UNK         0.3204 
    126 H126       35.7460   28.2032    3.6890 H         1 UNK         0.0748 
    127 H127       34.6198   25.9746    3.6093 H         1 UNK         0.0771 
    128 H128       35.2731   26.2429    5.2057 H         1 UNK         0.0771 
    129 H129       33.5526   26.4365    4.9323 H         1 UNK         0.0771 
    130 H130       32.8152   28.8727    5.6343 H         1 UNK         0.2980 
    131 H131       34.1179   28.8776    8.0720 H         1 UNK         0.0545 
    132 H132       34.7586   32.7601    7.1564 H         1 UNK         0.3459 
    133 H133       34.1510   31.6685    5.9297 H         1 UNK         0.3459 
    134 H134       32.0304   29.5865    9.0824 H         1 UNK         0.0616 
    135 H135       31.4263   30.2296    7.5858 H         1 UNK         0.0616 
    136 H136       29.4627   28.8919    6.5448 H         1 UNK         0.0634 
    137 H137       30.8676   28.8109    5.5097 H         1 UNK         0.0634 
@<TRIPOS>BOND
     1    1    2 1    
     2    1   72 1    
     3    1   73 1    
     4    1   74 1    
     5    2    3 2    
     6    2    4 am   BACKBONE|DICT|INTERRES
     7    4    5 1    
     8    4   75 1    
     9    5    6 1    
    10    5   35 1    
    11    5   76 1    
    12    6    7 1    
    13    6   77 1    
    14    6   78 1    
    15    7    8 1    
    16    8    9 1    
    17    8   79 1    
    18    8   80 1    
    19    9   10 ar   
    20    9   14 ar   
    21   10   11 ar   
    22   10   81 1    
    23   11   12 ar   
    24   11   71 1    
    25   12   13 ar   
    26   12   82 1    
    27   13   14 ar   
    28   13   15 1    
    29   14   83 1    
    30   15   16 1    
    31   15   84 1    
    32   15   85 1    
    33   16   17 1    
    34   17   18 1    
    35   17   86 1    
    36   17   87 1    
    37   18   19 1    
    38   18   37 1    
    39   18   88 1    
    40   19   20 am   BACKBONE|DICT|INTERRES
    41   19   89 1    
    42   20   21 2    
    43   20   22 1    
    44   22   23 1    
    45   22   24 1    
    46   22   90 1    
    47   23   91 1    
    48   23   92 1    
    49   23   93 1    
    50   24   25 am   BACKBONE|DICT|INTERRES
    51   24   94 1    
    52   25   26 2    
    53   25   27 1    
    54   27   28 1    
    55   27   29 1    
    56   27   95 1    
    57   28   96 1    
    58   28   97 1    
    59   28   98 1    
    60   29   30 am   BACKBONE|DICT|INTERRES
    61   29   99 1    
    62   30   31 2    
    63   30   32 1    
    64   32   33 1    
    65   32   34 1    
    66   32  100 1    
    67   33  101 1    
    68   33  102 1    
    69   33  103 1    
    70   34   35 am   BACKBONE|DICT|INTERRES
    71   34  104 1    
    72   35   36 2    
    73   37   38 2    
    74   37   39 am   BACKBONE|DICT|INTERRES
    75   39   40 1    
    76   39  105 1    
    77   40   41 1    
    78   40   42 1    
    79   40  106 1    
    80   41  107 1    
    81   41  108 1    
    82   41  109 1    
    83   42   43 2    
    84   42   44 am   BACKBONE|DICT|INTERRES
    85   44   45 1    
    86   44  110 1    
    87   45   46 1    
    88   45   47 1    
    89   45  111 1    
    90   46  112 1    
    91   46  113 1    
    92   46  114 1    
    93   47   48 2    
    94   47   49 am   BACKBONE|DICT|INTERRES
    95   49   50 1    
    96   49  115 1    
    97   50   51 1    
    98   50   52 1    
    99   50  116 1    
   100   51  117 1    
   101   51  118 1    
   102   51  119 1    
   103   52   53 2    
   104   52   54 am   BACKBONE|DICT|INTERRES
   105   54   55 1    
   106   54  120 1    
   107   55   56 1    
   108   55   57 1    
   109   55  121 1    
   110   56  122 1    
   111   56  123 1    
   112   56  124 1    
   113   57   58 2    
   114   57   59 am   BACKBONE|DICT|INTERRES
   115   59   60 1    
   116   59  125 1    
   117   60   61 1    
   118   60   62 1    
   119   60  126 1    
   120   61  127 1    
   121   61  128 1    
   122   61  129 1    
   123   62   63 2    
   124   62   64 am   BACKBONE|DICT|INTERRES
   125   64   65 1    
   126   64  130 1    
   127   65   66 1    
   128   65   69 1    
   129   65  131 1    
   130   66   67 am   BACKBONE|DICT|INTERRES
   131   66   68 2    
   132   67  132 1    
   133   67  133 1    
   134   69   70 1    
   135   69  134 1    
   136   69  135 1    
   137   70   71 1    
   138   71  136 1    
   139   71  137 1    
@<TRIPOS>SUBSTRUCTURE
     1 UNK         1 GROUP             0       ****    0 ROOT    
