@<TRIPOS>MOLECULE
3R136
137   139    1
SMALL
USER_CHARGES


@<TRIPOS>ATOM
      1 CA         30.7165   24.1983    4.8167 C.3       0 UNK        -0.1979 
      2 C          30.4343   22.8983    4.0762 C.2       0 UNK         0.4864 
      3 O          30.3374   21.8424    4.7037 O.2       0 UNK        -0.5359 
      4 N          30.3115   22.9700    2.7456 N.am      1 UNK        -0.4318 
      5 CA         29.9480   21.8573    1.8624 C.3       1 UNK         0.0824 
      6 C6         30.5118   22.0760    0.4307 C.3       12 UNK        -0.0944 
      7 S7         29.9473   23.6282   -0.3519 S.3       12 UNK        -0.2672 
      8 C8         31.4537   24.6454   -0.2962 C.3       12 UNK         0.0333 
      9 C9         31.1194   26.1176   -0.1132 C.ar      12 UNK        -0.0807 
     10 C10        31.2482   26.7124    1.1448 C.ar      12 UNK        -0.0894 
     11 C11        30.9752   28.0716    1.3205 C.ar      12 UNK        -0.0804 
     12 C12        30.5989   28.8435    0.2189 C.ar      12 UNK        -0.0824 
     13 C13        30.4449   28.2578   -1.0420 C.ar      12 UNK        -0.0762 
     14 C14        30.7030   26.8919   -1.2008 C.ar      12 UNK        -0.0782 
     15 C15        30.0338   29.1044   -2.2400 C.3       12 UNK         0.0230 
     16 S16        28.2237   29.1824   -2.4489 S.3       12 UNK        -0.2608 
     17 C17        27.7319   30.2676   -1.0632 C.3       12 UNK        -0.0989 
     18 CA         26.8755   29.5660    0.0274 C.3       5 UNK         0.0716 
     19 N          27.3656   28.2269    0.3755 N.am      5 UNK        -0.4135 
     20 C          26.6126   27.2623    0.9181 C.2       4 UNK         0.5031 
     21 O          25.4234   27.3956    1.2158 O.2       4 UNK        -0.5229 
     22 CA         27.3180   25.9266    1.2018 C.3       4 UNK         0.0329 
     23 CB         27.3694   25.6654    2.7166 C.3       4 UNK        -0.2001 
     24 N          26.6789   24.7849    0.5421 N.am      4 UNK        -0.4303 
     25 C          26.4389   24.6617   -0.7726 C.2       3 UNK         0.5044 
     26 O          26.7403   25.5137   -1.6096 O.2       3 UNK        -0.5152 
     27 CA         25.7780   23.3469   -1.2256 C.3       3 UNK         0.0319 
     28 CB         25.8870   23.1142   -2.7449 C.3       3 UNK        -0.2001 
     29 N          26.3820   22.2128   -0.5256 N.am      3 UNK        -0.4354 
     30 C          25.7246   21.3079    0.2118 C.2       2 UNK         0.4964 
     31 O          24.5007   21.2947    0.3478 O.2       2 UNK        -0.5047 
     32 CA         26.5663   20.2325    0.9310 C.3       2 UNK         0.0288 
     33 CB         26.4820   18.8949    0.1769 C.3       2 UNK        -0.2113 
     34 N          27.9796   20.5869    1.1180 N.am      2 UNK        -0.4145 
     35 C          28.4206   21.6084    1.8672 C.2       1 UNK         0.5006 
     36 O          27.6637   22.3474    2.5025 O.2       1 UNK        -0.5103 
     37 C          26.7529   30.4848    1.2625 C.2       5 UNK         0.5055 
     38 O          26.0551   31.4963    1.1822 O.2       5 UNK        -0.5220 
     39 N          27.4592   30.1426    2.3552 N.am      6 UNK        -0.4450 
     40 CA         27.5948   30.9065    3.6042 C.3       6 UNK         0.0367 
     41 CB         26.2451   31.0012    4.3460 C.3       6 UNK        -0.1929 
     42 C          28.2723   32.2779    3.4011 C.2       6 UNK         0.5070 
     43 O          27.9181   33.2471    4.0733 O.2       6 UNK        -0.5237 
     44 N          29.2338   32.3343    2.4702 N.am      7 UNK        -0.4739 
     45 CA         29.9276   33.5519    2.0483 C.3       7 UNK         0.0276 
     46 CB         29.1426   34.2140    0.9005 C.3       7 UNK        -0.1927 
     47 C          31.3954   33.2690    1.6835 C.2       7 UNK         0.5013 
     48 O          31.9187   33.8708    0.7445 O.2       7 UNK        -0.5193 
     49 N          32.0393   32.3584    2.4229 N.am      8 UNK        -0.4253 
     50 CA         33.4517   32.0055    2.2899 C.3       8 UNK         0.0242 
     51 CB         33.6631   31.0293    1.1163 C.3       8 UNK        -0.2000 
     52 C          33.9285   31.3967    3.6122 C.2       8 UNK         0.4948 
     53 O          33.1045   30.8994    4.3849 O.2       8 UNK        -0.5275 
     54 N          35.2500   31.4206    3.8349 N.am      9 UNK        -0.4246 
     55 CA         35.9196   30.9844    5.0687 C.3       9 UNK         0.0261 
     56 CB         37.4304   31.2399    4.9452 C.3       9 UNK        -0.1959 
     57 C          35.6561   29.5229    5.4743 C.2       9 UNK         0.5033 
     58 O          35.6623   29.2221    6.6688 O.2       9 UNK        -0.5390 
     59 N          35.3820   28.6539    4.4902 N.am      10 UNK        -0.4215 
     60 CA         34.9879   27.2526    4.6798 C.3       10 UNK         0.0240 
     61 CB         34.8636   26.5751    3.3044 C.3       10 UNK        -0.1982 
     62 C          33.6859   27.0659    5.4842 C.2       10 UNK         0.4970 
     63 O          33.4972   26.0037    6.0771 O.2       10 UNK        -0.4916 
     64 N          32.8265   28.0914    5.4926 N.am      11 UNK        -0.4279 
     65 CA         31.5727   28.1473    6.2520 C.3       11 UNK         0.1003 
     66 C          31.7450   28.7704    7.6687 C.2       11 UNK         0.5709 
     67 N          32.9386   29.1780    8.0886 N.am      11 UNK        -0.7358 
     68 O          30.7748   28.8696    8.4161 O.2       11 UNK        -0.4999 
     69 C69        30.4651   28.8642    5.4344 C.3       12 UNK        -0.0954 
     70 S70        30.0200   27.9553    3.9169 S.3       12 UNK        -0.2268 
     71 C71        31.1286   28.7110    2.6912 C.3       12 UNK         0.0203 
     72 H72        31.5303   24.0588    5.5284 H         1 UNK         0.0888 
     73 H73        31.0015   25.0020    4.1381 H         1 UNK         0.0888 
     74 H74        29.8318   24.5171    5.3680 H         1 UNK         0.0888 
     75 H75        30.3514   23.8690    2.2895 H         1 UNK         0.3017 
     76 H76        30.4065   20.9485    2.2585 H         1 UNK         0.0873 
     77 H77        31.6020   22.0630    0.4667 H         1 UNK         0.0745 
     78 H78        30.2493   21.2473   -0.2286 H         1 UNK         0.0745 
     79 H79        32.1041   24.3138    0.5144 H         1 UNK         0.0705 
     80 H80        32.0180   24.5009   -1.2184 H         1 UNK         0.0705 
     81 H81        31.5692   26.1221    1.9915 H         1 UNK         0.1334 
     82 H82        30.4379   29.9041    0.3420 H         1 UNK         0.1417 
     83 H83        30.5932   26.4318   -2.1737 H         1 UNK         0.1562 
     84 H84        30.4690   28.6881   -3.1498 H         1 UNK         0.0748 
     85 H85        30.4391   30.1137   -2.1515 H         1 UNK         0.0748 
     86 H86        27.1622   31.0967   -1.4877 H         1 UNK         0.0940 
     87 H87        28.6201   30.7334   -0.6374 H         1 UNK         0.0940 
     88 H88        25.8688   29.4475   -0.3801 H         1 UNK         0.0703 
     89 H89        28.3150   28.0140    0.0991 H         1 UNK         0.3081 
     90 H90        28.3421   25.9898    0.8309 H         1 UNK         0.0719 
     91 H91        26.4040   25.3362    3.1020 H         1 UNK         0.0809 
     92 H92        28.1076   24.9044    2.9634 H         1 UNK         0.0809 
     93 H93        27.6383   26.5644    3.2690 H         1 UNK         0.0809 
     94 H94        26.4226   24.0148    1.1444 H         1 UNK         0.2990 
     95 H95        24.7197   23.4338   -0.9717 H         1 UNK         0.0690 
     96 H96        25.4010   22.1837   -3.0383 H         1 UNK         0.0788 
     97 H97        26.9271   23.0671   -3.0700 H         1 UNK         0.0788 
     98 H98        25.4051   23.9192   -3.3013 H         1 UNK         0.0788 
     99 H99        27.3911   22.1645   -0.5583 H         1 UNK         0.2993 
    100 H100       26.1267   20.0957    1.9216 H         1 UNK         0.0949 
    101 H101       26.9923   18.0990    0.7200 H         1 UNK         0.0767 
    102 H102       25.4444   18.5823    0.0495 H         1 UNK         0.0767 
    103 H103       26.9256   18.9635   -0.8174 H         1 UNK         0.0767 
    104 H104       28.6519   20.0153    0.6269 H         1 UNK         0.3013 
    105 H105       27.9815   29.2787    2.3181 H         1 UNK         0.3121 
    106 H106       28.2688   30.3365    4.2422 H         1 UNK         0.0774 
    107 H107       26.3743   31.4368    5.3370 H         1 UNK         0.0815 
    108 H108       25.5292   31.6244    3.8096 H         1 UNK         0.0815 
    109 H109       25.7984   30.0168    4.4822 H         1 UNK         0.0815 
    110 H110       29.4697   31.4920    1.9695 H         1 UNK         0.2987 
    111 H111       29.9632   34.2536    2.8825 H         1 UNK         0.0949 
    112 H112       29.1042   33.5739    0.0204 H         1 UNK         0.0806 
    113 H113       28.1176   34.4351    1.1969 H         1 UNK         0.0806 
    114 H114       29.6013   35.1564    0.6013 H         1 UNK         0.0806 
    115 H115       31.5853   31.9489    3.2304 H         1 UNK         0.3010 
    116 H116       34.0245   32.9182    2.1106 H         1 UNK         0.0829 
    117 H117       33.3025   31.4490    0.1773 H         1 UNK         0.0813 
    118 H118       34.7212   30.8046    0.9790 H         1 UNK         0.0813 
    119 H119       33.1506   30.0821    1.2744 H         1 UNK         0.0813 
    120 H120       35.8455   31.8329    3.1304 H         1 UNK         0.3038 
    121 H121       35.5352   31.6094    5.8774 H         1 UNK         0.0769 
    122 H122       37.8706   30.6732    4.1238 H         1 UNK         0.0811 
    123 H123       37.9519   30.9482    5.8581 H         1 UNK         0.0811 
    124 H124       37.6436   32.2959    4.7784 H         1 UNK         0.0811 
    125 H125       35.4075   28.9952    3.5407 H         1 UNK         0.3204 
    126 H126       35.7857   26.7583    5.2378 H         1 UNK         0.0748 
    127 H127       35.8082   26.6032    2.7609 H         1 UNK         0.0771 
    128 H128       34.5848   25.5254    3.4093 H         1 UNK         0.0771 
    129 H129       34.1043   27.0521    2.6836 H         1 UNK         0.0771 
    130 H130       33.0764   28.9527    5.0192 H         1 UNK         0.2980 
    131 H131       31.2293   27.1267    6.4305 H         1 UNK         0.0545 
    132 H132       33.0232   29.5704    9.0125 H         1 UNK         0.3459 
    133 H133       33.7606   29.0927    7.5029 H         1 UNK         0.3459 
    134 H134       30.7593   29.8843    5.1835 H         1 UNK         0.0616 
    135 H135       29.5517   28.9505    6.0254 H         1 UNK         0.0616 
    136 H136       30.9249   29.7800    2.6492 H         1 UNK         0.0634 
    137 H137       32.1645   28.6026    3.0060 H         1 UNK         0.0634 
@<TRIPOS>BOND
     1    1    2 1    
     2    1   72 1    
     3    1   73 1    
     4    1   74 1    
     5    2    3 2    
     6    2    4 am   BACKBONE|DICT|INTERRES
     7    4    5 1    
     8    4   75 1    
     9    5    6 1    
    10    5   35 1    
    11    5   76 1    
    12    6    7 1    
    13    6   77 1    
    14    6   78 1    
    15    7    8 1    
    16    8    9 1    
    17    8   79 1    
    18    8   80 1    
    19    9   10 ar   
    20    9   14 ar   
    21   10   11 ar   
    22   10   81 1    
    23   11   12 ar   
    24   11   71 1    
    25   12   13 ar   
    26   12   82 1    
    27   13   14 ar   
    28   13   15 1    
    29   14   83 1    
    30   15   16 1    
    31   15   84 1    
    32   15   85 1    
    33   16   17 1    
    34   17   18 1    
    35   17   86 1    
    36   17   87 1    
    37   18   19 1    
    38   18   37 1    
    39   18   88 1    
    40   19   20 am   BACKBONE|DICT|INTERRES
    41   19   89 1    
    42   20   21 2    
    43   20   22 1    
    44   22   23 1    
    45   22   24 1    
    46   22   90 1    
    47   23   91 1    
    48   23   92 1    
    49   23   93 1    
    50   24   25 am   BACKBONE|DICT|INTERRES
    51   24   94 1    
    52   25   26 2    
    53   25   27 1    
    54   27   28 1    
    55   27   29 1    
    56   27   95 1    
    57   28   96 1    
    58   28   97 1    
    59   28   98 1    
    60   29   30 am   BACKBONE|DICT|INTERRES
    61   29   99 1    
    62   30   31 2    
    63   30   32 1    
    64   32   33 1    
    65   32   34 1    
    66   32  100 1    
    67   33  101 1    
    68   33  102 1    
    69   33  103 1    
    70   34   35 am   BACKBONE|DICT|INTERRES
    71   34  104 1    
    72   35   36 2    
    73   37   38 2    
    74   37   39 am   BACKBONE|DICT|INTERRES
    75   39   40 1    
    76   39  105 1    
    77   40   41 1    
    78   40   42 1    
    79   40  106 1    
    80   41  107 1    
    81   41  108 1    
    82   41  109 1    
    83   42   43 2    
    84   42   44 am   BACKBONE|DICT|INTERRES
    85   44   45 1    
    86   44  110 1    
    87   45   46 1    
    88   45   47 1    
    89   45  111 1    
    90   46  112 1    
    91   46  113 1    
    92   46  114 1    
    93   47   48 2    
    94   47   49 am   BACKBONE|DICT|INTERRES
    95   49   50 1    
    96   49  115 1    
    97   50   51 1    
    98   50   52 1    
    99   50  116 1    
   100   51  117 1    
   101   51  118 1    
   102   51  119 1    
   103   52   53 2    
   104   52   54 am   BACKBONE|DICT|INTERRES
   105   54   55 1    
   106   54  120 1    
   107   55   56 1    
   108   55   57 1    
   109   55  121 1    
   110   56  122 1    
   111   56  123 1    
   112   56  124 1    
   113   57   58 2    
   114   57   59 am   BACKBONE|DICT|INTERRES
   115   59   60 1    
   116   59  125 1    
   117   60   61 1    
   118   60   62 1    
   119   60  126 1    
   120   61  127 1    
   121   61  128 1    
   122   61  129 1    
   123   62   63 2    
   124   62   64 am   BACKBONE|DICT|INTERRES
   125   64   65 1    
   126   64  130 1    
   127   65   66 1    
   128   65   69 1    
   129   65  131 1    
   130   66   67 am   BACKBONE|DICT|INTERRES
   131   66   68 2    
   132   67  132 1    
   133   67  133 1    
   134   69   70 1    
   135   69  134 1    
   136   69  135 1    
   137   70   71 1    
   138   71  136 1    
   139   71  137 1    
@<TRIPOS>SUBSTRUCTURE
     1 UNK         1 GROUP             0       ****    0 ROOT    
