@<TRIPOS>MOLECULE
3R136
137   139    1
SMALL
USER_CHARGES


@<TRIPOS>ATOM
      1 CA         33.2664   23.7946   -4.1740 C.3       0 UNK        -0.1979 
      2 C          32.3782   24.5146   -3.1698 C.2       0 UNK         0.4864 
      3 O          32.2686   25.7400   -3.2210 O.2       0 UNK        -0.5359 
      4 N          31.7507   23.7627   -2.2558 N.am      1 UNK        -0.4318 
      5 CA         30.8141   24.2694   -1.2491 C.3       1 UNK         0.0824 
      6 C6         30.5360   23.1906   -0.1727 C.3       12 UNK        -0.0944 
      7 S7         29.6441   23.8471    1.2749 S.3       12 UNK        -0.2672 
      8 C8         30.8650   23.6321    2.6034 C.3       12 UNK         0.0333 
      9 C9         30.3167   24.1620    3.9186 C.ar      12 UNK        -0.0807 
     10 C10        30.9134   25.2589    4.5459 C.ar      12 UNK        -0.0894 
     11 C11        30.3882   25.7697    5.7378 C.ar      12 UNK        -0.0804 
     12 C12        29.2477   25.1794    6.2914 C.ar      12 UNK        -0.0824 
     13 C13        28.6261   24.0996    5.6571 C.ar      12 UNK        -0.0762 
     14 C14        29.1840   23.5752    4.4895 C.ar      12 UNK        -0.0782 
     15 C15        27.3173   23.5383    6.1947 C.3       12 UNK         0.0230 
     16 S16        25.9110   23.9295    5.0952 S.3       12 UNK        -0.2608 
     17 C17        26.0027   25.7505    4.9915 C.3       12 UNK        -0.0989 
     18 CA         26.6266   26.2279    3.6377 C.3       5 UNK         0.0716 
     19 N          25.6470   26.6732    2.6408 N.am      5 UNK        -0.4135 
     20 C          24.7546   27.6702    2.7664 C.2       4 UNK         0.5031 
     21 O          24.5763   28.3012    3.8089 O.2       4 UNK        -0.5229 
     22 CA         23.9175   28.0630    1.5288 C.3       4 UNK         0.0329 
     23 CB         24.2131   29.5166    1.1186 C.3       4 UNK        -0.2001 
     24 N          24.1292   27.2038    0.3634 N.am      4 UNK        -0.4303 
     25 C          23.6886   25.9463    0.2238 C.2       3 UNK         0.5044 
     26 O          22.9425   25.3900    1.0295 O.2       3 UNK        -0.5152 
     27 CA         24.1960   25.1634   -1.0048 C.3       3 UNK         0.0319 
     28 CB         23.0920   25.0640   -2.0702 C.3       3 UNK        -0.2001 
     29 N          25.4135   25.7097   -1.6247 N.am      3 UNK        -0.4354 
     30 C          26.6015   25.8494   -1.0185 C.2       2 UNK         0.4964 
     31 O          26.8004   25.5831    0.1698 O.2       2 UNK        -0.5047 
     32 CA         27.7227   26.4795   -1.8564 C.3       2 UNK         0.0288 
     33 CB         27.7492   28.0019   -1.6407 C.3       2 UNK        -0.2113 
     34 N          29.0169   25.9247   -1.4703 N.am      2 UNK        -0.4145 
     35 C          29.5099   24.7631   -1.9142 C.2       1 UNK         0.5006 
     36 O          28.9718   24.0763   -2.7883 O.2       1 UNK        -0.5103 
     37 C          27.7249   27.3017    3.7796 C.2       5 UNK         0.5055 
     38 O          27.8029   27.9977    4.7944 O.2       5 UNK        -0.5220 
     39 N          28.5409   27.4312    2.7273 N.am      6 UNK        -0.4450 
     40 CA         29.6999   28.3132    2.6673 C.3       6 UNK         0.0367 
     41 CB         29.2764   29.7201    2.2153 C.3       6 UNK        -0.1929 
     42 C          30.7095   27.7099    1.6909 C.2       6 UNK         0.5070 
     43 O          30.3028   27.2156    0.6387 O.2       6 UNK        -0.5237 
     44 N          31.9981   27.7850    2.0363 N.am      7 UNK        -0.4739 
     45 CA         33.1057   27.4014    1.1596 C.3       7 UNK         0.0276 
     46 CB         34.2367   26.7902    2.0028 C.3       7 UNK        -0.1927 
     47 C          33.6112   28.6169    0.3671 C.2       7 UNK         0.5013 
     48 O          33.9064   28.4891   -0.8209 O.2       7 UNK        -0.5193 
     49 N          33.6793   29.7748    1.0349 N.am      8 UNK        -0.4253 
     50 CA         34.0661   31.0662    0.4757 C.3       8 UNK         0.0242 
     51 CB         35.5986   31.1486    0.3203 C.3       8 UNK        -0.2000 
     52 C          33.5115   32.1350    1.4202 C.2       8 UNK         0.4948 
     53 O          34.2167   32.5620    2.3360 O.2       8 UNK        -0.5275 
     54 N          32.2198   32.4606    1.2582 N.am      9 UNK        -0.4246 
     55 CA         31.3735   33.3253    2.1052 C.3       9 UNK         0.0261 
     56 CB         31.9287   34.7603    2.1990 C.3       9 UNK        -0.1959 
     57 C          31.0792   32.7475    3.5055 C.2       9 UNK         0.5033 
     58 O          29.9433   32.8404    3.9714 O.2       9 UNK        -0.5390 
     59 N          32.0858   32.1246    4.1195 N.am      10 UNK        -0.4215 
     60 CA         32.0125   31.2829    5.3068 C.3       10 UNK         0.0240 
     61 CB         32.3736   32.1132    6.5554 C.3       10 UNK        -0.1982 
     62 C          32.9306   30.0716    5.0665 C.2       10 UNK         0.4970 
     63 O          33.0681   29.6392    3.9175 O.2       10 UNK        -0.4916 
     64 N          33.5311   29.5348    6.1322 N.am      11 UNK        -0.4279 
     65 CA         34.4833   28.4128    6.0913 C.3       11 UNK         0.1003 
     66 C          35.5366   28.4466    7.2370 C.2       11 UNK         0.5709 
     67 N          35.6966   29.5511    7.9586 N.am      11 UNK        -0.7358 
     68 O          36.2430   27.4675    7.4651 O.2       11 UNK        -0.4999 
     69 C69        33.7835   27.0362    5.9090 C.3       12 UNK        -0.0954 
     70 S70        32.5796   26.6361    7.2246 S.3       12 UNK        -0.2268 
     71 C71        30.9995   26.9986    6.3984 C.3       12 UNK         0.0203 
     72 H72        34.2891   24.1638   -4.1026 H         1 UNK         0.0888 
     73 H73        33.2825   22.7177   -4.0068 H         1 UNK         0.0888 
     74 H74        32.9087   23.9748   -5.1875 H         1 UNK         0.0888 
     75 H75        31.8566   22.7590   -2.2876 H         1 UNK         0.3017 
     76 H76        31.2974   25.1194   -0.7633 H         1 UNK         0.0873 
     77 H77        29.9575   22.3643   -0.5905 H         1 UNK         0.0745 
     78 H78        31.4770   22.7540    0.1662 H         1 UNK         0.0745 
     79 H79        31.1095   22.5744    2.7104 H         1 UNK         0.0705 
     80 H80        31.7872   24.1471    2.3286 H         1 UNK         0.0705 
     81 H81        31.7754   25.7214    4.0912 H         1 UNK         0.1334 
     82 H82        28.8166   25.5908    7.1939 H         1 UNK         0.1417 
     83 H83        28.7020   22.7444    3.9916 H         1 UNK         0.1562 
     84 H84        27.1086   23.9246    7.1936 H         1 UNK         0.0748 
     85 H85        27.4009   22.4552    6.2955 H         1 UNK         0.0748 
     86 H86        26.5588   26.1102    5.8580 H         1 UNK         0.0940 
     87 H87        24.9949   26.1398    5.1330 H         1 UNK         0.0940 
     88 H88        27.1308   25.3752    3.1786 H         1 UNK         0.0703 
     89 H89        25.7601   26.2463    1.7265 H         1 UNK         0.3081 
     90 H90        22.8663   27.9946    1.8167 H         1 UNK         0.0719 
     91 H91        25.2565   29.6499    0.8290 H         1 UNK         0.0809 
     92 H92        23.5881   29.8292    0.2819 H         1 UNK         0.0809 
     93 H93        24.0139   30.2051    1.9411 H         1 UNK         0.0809 
     94 H94        24.7289   27.5697   -0.3610 H         1 UNK         0.2990 
     95 H95        24.4319   24.1539   -0.6618 H         1 UNK         0.0690 
     96 H96        23.3966   24.4267   -2.9007 H         1 UNK         0.0788 
     97 H97        22.8313   26.0431   -2.4740 H         1 UNK         0.0788 
     98 H98        22.1819   24.6317   -1.6514 H         1 UNK         0.0788 
     99 H99        25.3330   25.9812   -2.5947 H         1 UNK         0.2993 
    100 H100       27.5459   26.2740   -2.9145 H         1 UNK         0.0949 
    101 H101       27.8973   28.2567   -0.5904 H         1 UNK         0.0767 
    102 H102       28.5525   28.4678   -2.2119 H         1 UNK         0.0767 
    103 H103       26.8140   28.4623   -1.9617 H         1 UNK         0.0767 
    104 H104       29.4974   26.3959   -0.7026 H         1 UNK         0.3013 
    105 H105       28.4410   26.8123    1.9301 H         1 UNK         0.3121 
    106 H106       30.1610   28.3769    3.6537 H         1 UNK         0.0774 
    107 H107       28.6302   30.1964    2.9530 H         1 UNK         0.0815 
    108 H108       28.7420   29.6955    1.2653 H         1 UNK         0.0815 
    109 H109       30.1471   30.3613    2.0827 H         1 UNK         0.0815 
    110 H110       32.2553   28.2756    2.8882 H         1 UNK         0.2987 
    111 H111       32.7729   26.6478    0.4426 H         1 UNK         0.0949 
    112 H112       34.6228   27.4963    2.7390 H         1 UNK         0.0806 
    113 H113       33.8974   25.9019    2.5356 H         1 UNK         0.0806 
    114 H114       35.0728   26.4885    1.3706 H         1 UNK         0.0806 
    115 H115       33.4356   29.7806    2.0223 H         1 UNK         0.3010 
    116 H116       33.6041   31.1953   -0.5055 H         1 UNK         0.0829 
    117 H117       35.9021   32.1369   -0.0270 H         1 UNK         0.0813 
    118 H118       36.1114   30.9610    1.2645 H         1 UNK         0.0813 
    119 H119       35.9646   30.4239   -0.4069 H         1 UNK         0.0813 
    120 H120       31.7276   32.0133    0.4965 H         1 UNK         0.3038 
    121 H121       30.4129   33.3841    1.5906 H         1 UNK         0.0769 
    122 H122       32.8771   34.8007    2.7352 H         1 UNK         0.0811 
    123 H123       31.2320   35.4104    2.7299 H         1 UNK         0.0811 
    124 H124       32.0838   35.1909    1.2098 H         1 UNK         0.0811 
    125 H125       32.9802   32.1152    3.6305 H         1 UNK         0.3204 
    126 H126       30.9976   30.8948    5.4159 H         1 UNK         0.0748 
    127 H127       32.2232   31.5447    7.4737 H         1 UNK         0.0771 
    128 H128       33.4111   32.4496    6.5316 H         1 UNK         0.0771 
    129 H129       31.7430   32.9995    6.6293 H         1 UNK         0.0771 
    130 H130       33.3419   29.9099    7.0497 H         1 UNK         0.2980 
    131 H131       35.0969   28.5620    5.2007 H         1 UNK         0.0545 
    132 H132       36.3888   29.5523    8.6915 H         1 UNK         0.3459 
    133 H133       35.1948   30.3975    7.7484 H         1 UNK         0.3459 
    134 H134       34.5187   26.2314    5.8610 H         1 UNK         0.0616 
    135 H135       33.2863   27.0225    4.9416 H         1 UNK         0.0616 
    136 H136       30.3137   27.4058    7.1427 H         1 UNK         0.0634 
    137 H137       31.1337   27.7877    5.6605 H         1 UNK         0.0634 
@<TRIPOS>BOND
     1    1    2 1    
     2    1   72 1    
     3    1   73 1    
     4    1   74 1    
     5    2    3 2    
     6    2    4 am   BACKBONE|DICT|INTERRES
     7    4    5 1    
     8    4   75 1    
     9    5    6 1    
    10    5   35 1    
    11    5   76 1    
    12    6    7 1    
    13    6   77 1    
    14    6   78 1    
    15    7    8 1    
    16    8    9 1    
    17    8   79 1    
    18    8   80 1    
    19    9   10 ar   
    20    9   14 ar   
    21   10   11 ar   
    22   10   81 1    
    23   11   12 ar   
    24   11   71 1    
    25   12   13 ar   
    26   12   82 1    
    27   13   14 ar   
    28   13   15 1    
    29   14   83 1    
    30   15   16 1    
    31   15   84 1    
    32   15   85 1    
    33   16   17 1    
    34   17   18 1    
    35   17   86 1    
    36   17   87 1    
    37   18   19 1    
    38   18   37 1    
    39   18   88 1    
    40   19   20 am   BACKBONE|DICT|INTERRES
    41   19   89 1    
    42   20   21 2    
    43   20   22 1    
    44   22   23 1    
    45   22   24 1    
    46   22   90 1    
    47   23   91 1    
    48   23   92 1    
    49   23   93 1    
    50   24   25 am   BACKBONE|DICT|INTERRES
    51   24   94 1    
    52   25   26 2    
    53   25   27 1    
    54   27   28 1    
    55   27   29 1    
    56   27   95 1    
    57   28   96 1    
    58   28   97 1    
    59   28   98 1    
    60   29   30 am   BACKBONE|DICT|INTERRES
    61   29   99 1    
    62   30   31 2    
    63   30   32 1    
    64   32   33 1    
    65   32   34 1    
    66   32  100 1    
    67   33  101 1    
    68   33  102 1    
    69   33  103 1    
    70   34   35 am   BACKBONE|DICT|INTERRES
    71   34  104 1    
    72   35   36 2    
    73   37   38 2    
    74   37   39 am   BACKBONE|DICT|INTERRES
    75   39   40 1    
    76   39  105 1    
    77   40   41 1    
    78   40   42 1    
    79   40  106 1    
    80   41  107 1    
    81   41  108 1    
    82   41  109 1    
    83   42   43 2    
    84   42   44 am   BACKBONE|DICT|INTERRES
    85   44   45 1    
    86   44  110 1    
    87   45   46 1    
    88   45   47 1    
    89   45  111 1    
    90   46  112 1    
    91   46  113 1    
    92   46  114 1    
    93   47   48 2    
    94   47   49 am   BACKBONE|DICT|INTERRES
    95   49   50 1    
    96   49  115 1    
    97   50   51 1    
    98   50   52 1    
    99   50  116 1    
   100   51  117 1    
   101   51  118 1    
   102   51  119 1    
   103   52   53 2    
   104   52   54 am   BACKBONE|DICT|INTERRES
   105   54   55 1    
   106   54  120 1    
   107   55   56 1    
   108   55   57 1    
   109   55  121 1    
   110   56  122 1    
   111   56  123 1    
   112   56  124 1    
   113   57   58 2    
   114   57   59 am   BACKBONE|DICT|INTERRES
   115   59   60 1    
   116   59  125 1    
   117   60   61 1    
   118   60   62 1    
   119   60  126 1    
   120   61  127 1    
   121   61  128 1    
   122   61  129 1    
   123   62   63 2    
   124   62   64 am   BACKBONE|DICT|INTERRES
   125   64   65 1    
   126   64  130 1    
   127   65   66 1    
   128   65   69 1    
   129   65  131 1    
   130   66   67 am   BACKBONE|DICT|INTERRES
   131   66   68 2    
   132   67  132 1    
   133   67  133 1    
   134   69   70 1    
   135   69  134 1    
   136   69  135 1    
   137   70   71 1    
   138   71  136 1    
   139   71  137 1    
@<TRIPOS>SUBSTRUCTURE
     1 UNK         1 GROUP             0       ****    0 ROOT    
