@<TRIPOS>MOLECULE
3R136
137   139    1
SMALL
USER_CHARGES


@<TRIPOS>ATOM
      1 CA         26.0464   20.9130   -0.1230 C.3       0 UNK        -0.1979 
      2 C          27.0597   22.0293   -0.3230 C.2       0 UNK         0.4864 
      3 O          27.0722   22.9860    0.4527 O.2       0 UNK        -0.5359 
      4 N          27.9100   21.9204   -1.3549 N.am      1 UNK        -0.4318 
      5 CA         28.9318   22.9135   -1.7135 C.3       1 UNK         0.0824 
      6 C6         29.9960   23.0669   -0.5888 C.3       12 UNK        -0.0944 
      7 S7         31.6229   23.6547   -1.1664 S.3       12 UNK        -0.2672 
      8 C8         32.7484   22.6450   -0.1474 C.3       12 UNK         0.0333 
      9 C9         32.6206   22.9763    1.3339 C.ar      12 UNK        -0.0807 
     10 C10        33.3675   24.0181    1.8901 C.ar      12 UNK        -0.0894 
     11 C11        33.2500   24.3314    3.2482 C.ar      12 UNK        -0.0804 
     12 C12        32.3626   23.6061    4.0496 C.ar      12 UNK        -0.0824 
     13 C13        31.6130   22.5583    3.5041 C.ar      12 UNK        -0.0762 
     14 C14        31.7599   22.2386    2.1523 C.ar      12 UNK        -0.0782 
     15 C15        30.6508   21.7553    4.3680 C.3       12 UNK         0.0230 
     16 S16        28.9106   22.1501    3.9953 S.3       12 UNK        -0.2608 
     17 C17        28.7918   23.8644    4.6065 C.3       12 UNK        -0.0989 
     18 CA         28.5729   24.8941    3.4617 C.3       5 UNK         0.0716 
     19 N          27.3016   24.7009    2.7492 N.am      5 UNK        -0.4135 
     20 C          26.0656   24.8698    3.2409 C.2       4 UNK         0.5031 
     21 O          25.8170   25.2061    4.4009 O.2       4 UNK        -0.5229 
     22 CA         24.9155   24.6289    2.2423 C.3       4 UNK         0.0329 
     23 CB         23.5195   24.6251    2.9047 C.3       4 UNK        -0.2001 
     24 N          24.9748   25.5736    1.1167 N.am      4 UNK        -0.4303 
     25 C          24.8462   26.9086    1.1827 C.2       3 UNK         0.5044 
     26 O          24.5798   27.5203    2.2181 O.2       3 UNK        -0.5152 
     27 CA         25.0197   27.6966   -0.1355 C.3       3 UNK         0.0319 
     28 CB         25.2334   29.2066    0.1027 C.3       3 UNK        -0.2001 
     29 N          26.0604   27.1986   -1.0468 N.am      3 UNK        -0.4354 
     30 C          27.3474   26.9533   -0.7617 C.2       2 UNK         0.4964 
     31 O          27.8246   26.9345    0.3743 O.2       2 UNK        -0.5047 
     32 CA         28.2741   26.6986   -1.9589 C.3       2 UNK         0.0288 
     33 CB         29.3806   27.7626   -2.0260 C.3       2 UNK        -0.2113 
     34 N          28.8806   25.3794   -1.8243 N.am      2 UNK        -0.4145 
     35 C          28.2641   24.2391   -2.1528 C.2       1 UNK         0.5006 
     36 O          27.1977   24.2058   -2.7750 O.2       1 UNK        -0.5103 
     37 C          28.7415   26.3523    3.9479 C.2       5 UNK         0.5055 
     38 O          29.0187   26.5797    5.1272 O.2       5 UNK        -0.5220 
     39 N          28.5632   27.3202    3.0413 N.am      6 UNK        -0.4450 
     40 CA         28.6613   28.7486    3.3283 C.3       6 UNK         0.0367 
     41 CB         27.2908   29.2899    3.7778 C.3       6 UNK        -0.1929 
     42 C          29.2297   29.4807    2.1076 C.2       6 UNK         0.5070 
     43 O          28.5592   30.3385    1.5289 O.2       6 UNK        -0.5237 
     44 N          30.4750   29.1507    1.7381 N.am      7 UNK        -0.4739 
     45 CA         31.2521   29.8362    0.6985 C.3       7 UNK         0.0276 
     46 CB         32.4009   28.9154    0.2423 C.3       7 UNK        -0.1927 
     47 C          31.7630   31.2024    1.2032 C.2       7 UNK         0.5013 
     48 O          32.9720   31.3919    1.3464 O.2       7 UNK        -0.5193 
     49 N          30.8195   32.1037    1.5131 N.am      8 UNK        -0.4253 
     50 CA         31.0099   33.3794    2.2089 C.3       8 UNK         0.0242 
     51 CB         29.6813   34.1526    2.2070 C.3       8 UNK        -0.2000 
     52 C          32.1404   34.2499    1.6168 C.2       8 UNK         0.4948 
     53 O          32.2134   34.3720    0.3935 O.2       8 UNK        -0.5275 
     54 N          33.0061   34.8701    2.4325 N.am      9 UNK        -0.4246 
     55 CA         32.9914   34.9355    3.8997 C.3       9 UNK         0.0261 
     56 CB         33.7412   36.2098    4.3284 C.3       9 UNK        -0.1959 
     57 C          33.5756   33.7005    4.6209 C.2       9 UNK         0.5033 
     58 O          33.6090   33.7042    5.8529 O.2       9 UNK        -0.5390 
     59 N          34.0322   32.6794    3.8823 N.am      10 UNK        -0.4215 
     60 CA         34.5735   31.4398    4.4461 C.3       10 UNK         0.0240 
     61 CB         35.5432   30.8052    3.4311 C.3       10 UNK        -0.1982 
     62 C          33.4619   30.4507    4.8467 C.2       10 UNK         0.4970 
     63 O          32.2864   30.6638    4.5403 O.2       10 UNK        -0.4916 
     64 N          33.8801   29.3737    5.5228 N.am      11 UNK        -0.4279 
     65 CA         33.0659   28.2210    5.9552 C.3       11 UNK         0.1003 
     66 C          32.0844   28.5021    7.1326 C.2       11 UNK         0.5709 
     67 N          32.0442   29.7021    7.6994 N.am      11 UNK        -0.7358 
     68 O          31.3834   27.5987    7.5804 O.2       11 UNK        -0.4999 
     69 C69        32.3757   27.4610    4.7819 C.3       12 UNK        -0.0954 
     70 S70        33.5069   27.0854    3.4010 S.3       12 UNK        -0.2268 
     71 C71        34.1133   25.4317    3.8453 C.3       12 UNK         0.0203 
     72 H72        25.0343   21.3106   -0.1911 H         1 UNK         0.0888 
     73 H73        26.1544   20.1256   -0.8685 H         1 UNK         0.0888 
     74 H74        26.1726   20.4676    0.8634 H         1 UNK         0.0888 
     75 H75        27.8299   21.1330   -1.9829 H         1 UNK         0.3017 
     76 H76        29.4277   22.5178   -2.6011 H         1 UNK         0.0873 
     77 H77        30.1482   22.0854   -0.1414 H         1 UNK         0.0745 
     78 H78        29.6461   23.7048    0.2255 H         1 UNK         0.0745 
     79 H79        33.7736   22.8201   -0.4772 H         1 UNK         0.0705 
     80 H80        32.5511   21.5862   -0.3226 H         1 UNK         0.0705 
     81 H81        34.0438   24.5865    1.2660 H         1 UNK         0.1334 
     82 H82        32.2656   23.8494    5.0989 H         1 UNK         0.1417 
     83 H83        31.1878   21.4195    1.7397 H         1 UNK         0.1562 
     84 H84        30.8440   21.9220    5.4290 H         1 UNK         0.0748 
     85 H85        30.8143   20.6907    4.1942 H         1 UNK         0.0748 
     86 H86        29.6994   24.0981    5.1651 H         1 UNK         0.0940 
     87 H87        27.9813   23.9178    5.3350 H         1 UNK         0.0940 
     88 H88        29.3614   24.7383    2.7232 H         1 UNK         0.0703 
     89 H89        27.3760   24.3468    1.7985 H         1 UNK         0.3081 
     90 H90        25.0600   23.6319    1.8275 H         1 UNK         0.0719 
     91 H91        23.2919   25.5717    3.3951 H         1 UNK         0.0809 
     92 H92        22.7348   24.4281    2.1745 H         1 UNK         0.0809 
     93 H93        23.4571   23.8469    3.6662 H         1 UNK         0.0809 
     94 H94        25.2295   25.1712    0.2251 H         1 UNK         0.2990 
     95 H95        24.0739   27.5831   -0.6673 H         1 UNK         0.0690 
     96 H96        25.2658   29.7561   -0.8380 H         1 UNK         0.0788 
     97 H97        26.1669   29.3988    0.6316 H         1 UNK         0.0788 
     98 H98        24.4252   29.6360    0.6961 H         1 UNK         0.0788 
     99 H99        25.7750   27.1227   -2.0137 H         1 UNK         0.2993 
    100 H100       27.7011   26.7449   -2.8879 H         1 UNK         0.0949 
    101 H101       29.9861   27.7621   -1.1206 H         1 UNK         0.0767 
    102 H102       30.0438   27.5959   -2.8749 H         1 UNK         0.0767 
    103 H103       28.9557   28.7616   -2.1330 H         1 UNK         0.0767 
    104 H104       29.7476   25.3232   -1.3069 H         1 UNK         0.3013 
    105 H105       28.3248   27.0804    2.0764 H         1 UNK         0.3121 
    106 H106       29.3684   28.9173    4.1430 H         1 UNK         0.0774 
    107 H107       27.3470   30.3543    4.0082 H         1 UNK         0.0815 
    108 H108       26.5359   29.1616    3.0029 H         1 UNK         0.0815 
    109 H109       26.9371   28.7803    4.6741 H         1 UNK         0.0815 
    110 H110       30.9709   28.4565    2.2789 H         1 UNK         0.2987 
    111 H111       30.6049   30.0214   -0.1616 H         1 UNK         0.0949 
    112 H112       32.0416   27.9321   -0.0590 H         1 UNK         0.0806 
    113 H113       32.9252   29.3467   -0.6111 H         1 UNK         0.0806 
    114 H114       33.1382   28.7690    1.0315 H         1 UNK         0.0806 
    115 H115       29.8582   31.8025    1.3836 H         1 UNK         0.3010 
    116 H116       31.2361   33.1041    3.2371 H         1 UNK         0.0829 
    117 H117       28.8854   33.5787    2.6827 H         1 UNK         0.0813 
    118 H118       29.7732   35.0922    2.7533 H         1 UNK         0.0813 
    119 H119       29.3601   34.3948    1.1930 H         1 UNK         0.0813 
    120 H120       33.7447   35.4013    1.9941 H         1 UNK         0.3038 
    121 H121       31.9584   35.0437    4.2353 H         1 UNK         0.0769 
    122 H122       33.7016   36.3469    5.4101 H         1 UNK         0.0811 
    123 H123       33.3014   37.1007    3.8793 H         1 UNK         0.0811 
    124 H124       34.7936   36.1740    4.0440 H         1 UNK         0.0811 
    125 H125       33.8829   32.6800    2.8800 H         1 UNK         0.3204 
    126 H126       35.1431   31.6856    5.3451 H         1 UNK         0.0748 
    127 H127       36.0832   29.9661    3.8708 H         1 UNK         0.0771 
    128 H128       35.0227   30.4229    2.5530 H         1 UNK         0.0771 
    129 H129       36.2906   31.5227    3.0919 H         1 UNK         0.0771 
    130 H130       34.8618   29.3033    5.7464 H         1 UNK         0.2980 
    131 H131       33.7930   27.5298    6.3824 H         1 UNK         0.0545 
    132 H132       31.4188   29.8611    8.4733 H         1 UNK         0.3459 
    133 H133       32.6100   30.4546    7.3419 H         1 UNK         0.3459 
    134 H134       31.5540   28.0551    4.3839 H         1 UNK         0.0616 
    135 H135       31.9279   26.5296    5.1326 H         1 UNK         0.0616 
    136 H136       35.1329   25.3262    3.4718 H         1 UNK         0.0634 
    137 H137       34.1783   25.3370    4.9303 H         1 UNK         0.0634 
@<TRIPOS>BOND
     1    1    2 1    
     2    1   72 1    
     3    1   73 1    
     4    1   74 1    
     5    2    3 2    
     6    2    4 am   BACKBONE|DICT|INTERRES
     7    4    5 1    
     8    4   75 1    
     9    5    6 1    
    10    5   35 1    
    11    5   76 1    
    12    6    7 1    
    13    6   77 1    
    14    6   78 1    
    15    7    8 1    
    16    8    9 1    
    17    8   79 1    
    18    8   80 1    
    19    9   10 ar   
    20    9   14 ar   
    21   10   11 ar   
    22   10   81 1    
    23   11   12 ar   
    24   11   71 1    
    25   12   13 ar   
    26   12   82 1    
    27   13   14 ar   
    28   13   15 1    
    29   14   83 1    
    30   15   16 1    
    31   15   84 1    
    32   15   85 1    
    33   16   17 1    
    34   17   18 1    
    35   17   86 1    
    36   17   87 1    
    37   18   19 1    
    38   18   37 1    
    39   18   88 1    
    40   19   20 am   BACKBONE|DICT|INTERRES
    41   19   89 1    
    42   20   21 2    
    43   20   22 1    
    44   22   23 1    
    45   22   24 1    
    46   22   90 1    
    47   23   91 1    
    48   23   92 1    
    49   23   93 1    
    50   24   25 am   BACKBONE|DICT|INTERRES
    51   24   94 1    
    52   25   26 2    
    53   25   27 1    
    54   27   28 1    
    55   27   29 1    
    56   27   95 1    
    57   28   96 1    
    58   28   97 1    
    59   28   98 1    
    60   29   30 am   BACKBONE|DICT|INTERRES
    61   29   99 1    
    62   30   31 2    
    63   30   32 1    
    64   32   33 1    
    65   32   34 1    
    66   32  100 1    
    67   33  101 1    
    68   33  102 1    
    69   33  103 1    
    70   34   35 am   BACKBONE|DICT|INTERRES
    71   34  104 1    
    72   35   36 2    
    73   37   38 2    
    74   37   39 am   BACKBONE|DICT|INTERRES
    75   39   40 1    
    76   39  105 1    
    77   40   41 1    
    78   40   42 1    
    79   40  106 1    
    80   41  107 1    
    81   41  108 1    
    82   41  109 1    
    83   42   43 2    
    84   42   44 am   BACKBONE|DICT|INTERRES
    85   44   45 1    
    86   44  110 1    
    87   45   46 1    
    88   45   47 1    
    89   45  111 1    
    90   46  112 1    
    91   46  113 1    
    92   46  114 1    
    93   47   48 2    
    94   47   49 am   BACKBONE|DICT|INTERRES
    95   49   50 1    
    96   49  115 1    
    97   50   51 1    
    98   50   52 1    
    99   50  116 1    
   100   51  117 1    
   101   51  118 1    
   102   51  119 1    
   103   52   53 2    
   104   52   54 am   BACKBONE|DICT|INTERRES
   105   54   55 1    
   106   54  120 1    
   107   55   56 1    
   108   55   57 1    
   109   55  121 1    
   110   56  122 1    
   111   56  123 1    
   112   56  124 1    
   113   57   58 2    
   114   57   59 am   BACKBONE|DICT|INTERRES
   115   59   60 1    
   116   59  125 1    
   117   60   61 1    
   118   60   62 1    
   119   60  126 1    
   120   61  127 1    
   121   61  128 1    
   122   61  129 1    
   123   62   63 2    
   124   62   64 am   BACKBONE|DICT|INTERRES
   125   64   65 1    
   126   64  130 1    
   127   65   66 1    
   128   65   69 1    
   129   65  131 1    
   130   66   67 am   BACKBONE|DICT|INTERRES
   131   66   68 2    
   132   67  132 1    
   133   67  133 1    
   134   69   70 1    
   135   69  134 1    
   136   69  135 1    
   137   70   71 1    
   138   71  136 1    
   139   71  137 1    
@<TRIPOS>SUBSTRUCTURE
     1 UNK         1 GROUP             0       ****    0 ROOT    
