@<TRIPOS>MOLECULE
3R136
137   139    1
SMALL
USER_CHARGES


@<TRIPOS>ATOM
      1 CA         32.1789   20.0070   -0.1882 C.3       0 UNK        -0.1979 
      2 C          32.3025   21.4585   -0.6281 C.2       0 UNK         0.4864 
      3 O          33.3369   21.8428   -1.1757 O.2       0 UNK        -0.5359 
      4 N          31.2552   22.2564   -0.3927 N.am      1 UNK        -0.4318 
      5 CA         31.1520   23.6668   -0.7744 C.3       1 UNK         0.0824 
      6 C6         31.0871   24.6018    0.4590 C.3       12 UNK        -0.0944 
      7 S7         32.6290   24.5883    1.4357 S.3       12 UNK        -0.2672 
      8 C8         32.2123   23.4590    2.8049 C.3       12 UNK         0.0333 
      9 C9         31.2255   24.0708    3.7910 C.ar      12 UNK        -0.0807 
     10 C10        31.6706   24.9774    4.7576 C.ar      12 UNK        -0.0894 
     11 C11        30.7742   25.5328    5.6763 C.ar      12 UNK        -0.0804 
     12 C12        29.4261   25.1684    5.6332 C.ar      12 UNK        -0.0824 
     13 C13        28.9695   24.2585    4.6750 C.ar      12 UNK        -0.0762 
     14 C14        29.8734   23.7131    3.7576 C.ar      12 UNK        -0.0782 
     15 C15        27.5067   23.8389    4.6461 C.3       12 UNK         0.0230 
     16 S16        26.5258   24.8563    3.4987 S.3       12 UNK        -0.2608 
     17 C17        26.3361   26.4135    4.4345 C.3       12 UNK        -0.0989 
     18 CA         27.1626   27.5673    3.8182 C.3       5 UNK         0.0716 
     19 N          26.7237   27.8699    2.4536 N.am      5 UNK        -0.4135 
     20 C          27.1909   28.8190    1.6343 C.2       4 UNK         0.5031 
     21 O          28.0913   29.6081    1.9420 O.2       4 UNK        -0.5229 
     22 CA         26.5517   28.8934    0.2309 C.3       4 UNK         0.0329 
     23 CB         27.2822   29.8839   -0.6928 C.3       4 UNK        -0.2001 
     24 N          26.4845   27.5988   -0.4552 N.am      4 UNK        -0.4303 
     25 C          25.6449   26.5912   -0.1923 C.2       3 UNK         0.5044 
     26 O          24.8338   26.6229    0.7342 O.2       3 UNK        -0.5152 
     27 CA         25.7022   25.3324   -1.0832 C.3       3 UNK         0.0319 
     28 CB         24.5077   25.3101   -2.0568 C.3       3 UNK        -0.2001 
     29 N          26.9608   25.0795   -1.8072 N.am      3 UNK        -0.4354 
     30 C          27.5558   25.8016   -2.7674 C.2       2 UNK         0.4964 
     31 O          27.1712   26.9181   -3.1168 O.2       2 UNK        -0.5047 
     32 CA         28.7976   25.1731   -3.4351 C.3       2 UNK         0.0288 
     33 CB         29.3725   26.0556   -4.5602 C.3       2 UNK        -0.2113 
     34 N          29.8729   24.8662   -2.4860 N.am      2 UNK        -0.4145 
     35 C          29.8895   23.8299   -1.6373 C.2       1 UNK         0.5006 
     36 O          28.9484   23.0394   -1.5096 O.2       1 UNK        -0.5103 
     37 C          27.1117   28.8224    4.7105 C.2       5 UNK         0.5055 
     38 O          26.0265   29.3628    4.9329 O.2       5 UNK        -0.5220 
     39 N          28.2921   29.2720    5.1618 N.am      6 UNK        -0.4450 
     40 CA         28.5527   30.4846    5.9507 C.3       6 UNK         0.0367 
     41 CB         27.8639   30.4055    7.3296 C.3       6 UNK        -0.1929 
     42 C          28.2572   31.8158    5.2239 C.2       6 UNK         0.5070 
     43 O          28.3105   32.8654    5.8669 O.2       6 UNK        -0.5237 
     44 N          27.9804   31.7722    3.9134 N.am      7 UNK        -0.4739 
     45 CA         27.7331   32.9421    3.0678 C.3       7 UNK         0.0276 
     46 CB         26.4090   32.7595    2.3070 C.3       7 UNK        -0.1927 
     47 C          28.9017   33.1759    2.1004 C.2       7 UNK         0.5013 
     48 O          29.3828   34.3057    2.0050 O.2       7 UNK        -0.5193 
     49 N          29.3490   32.1128    1.4181 N.am      8 UNK        -0.4253 
     50 CA         30.4847   32.1378    0.4872 C.3       8 UNK         0.0242 
     51 CB         30.0026   32.5094   -0.9283 C.3       8 UNK        -0.2000 
     52 C          31.3045   30.8339    0.4880 C.2       8 UNK         0.4948 
     53 O          32.3176   30.7705   -0.2107 O.2       8 UNK        -0.5275 
     54 N          30.8761   29.8231    1.2576 N.am      9 UNK        -0.4246 
     55 CA         31.5840   28.5636    1.4914 C.3       9 UNK         0.0261 
     56 CB         30.6689   27.6511    2.3208 C.3       9 UNK        -0.1959 
     57 C          32.9353   28.7544    2.2049 C.2       9 UNK         0.5033 
     58 O          33.1443   29.7595    2.8911 O.2       9 UNK        -0.5390 
     59 N          33.8198   27.7593    2.0621 N.am      10 UNK        -0.4215 
     60 CA         35.1698   27.7252    2.6325 C.3       10 UNK         0.0240 
     61 CB         36.0242   26.7354    1.8178 C.3       10 UNK        -0.1982 
     62 C          35.1645   27.4018    4.1408 C.2       10 UNK         0.4970 
     63 O          35.7679   26.4145    4.5648 O.2       10 UNK        -0.4916 
     64 N          34.4693   28.2348    4.9210 N.am      11 UNK        -0.4279 
     65 CA         34.3162   28.1038    6.3784 C.3       11 UNK         0.1003 
     66 C          35.5337   28.6097    7.2047 C.2       11 UNK         0.5709 
     67 N          36.5243   29.2603    6.6055 N.am      11 UNK        -0.7358 
     68 O          35.5856   28.3971    8.4139 O.2       11 UNK        -0.4999 
     69 C69        32.9909   28.7387    6.8828 C.3       12 UNK        -0.0954 
     70 S70        31.5250   28.1566    5.9686 S.3       12 UNK        -0.2268 
     71 C71        31.2704   26.5213    6.7170 C.3       12 UNK         0.0203 
     72 H72        32.9647   19.7644    0.5266 H         1 UNK         0.0888 
     73 H73        31.2178   19.8040    0.2839 H         1 UNK         0.0888 
     74 H74        32.2818   19.3442   -1.0469 H         1 UNK         0.0888 
     75 H75        30.3990   21.8628   -0.0263 H         1 UNK         0.3017 
     76 H76        32.0076   23.9542   -1.3895 H         1 UNK         0.0873 
     77 H77        30.9258   25.6330    0.1405 H         1 UNK         0.0745 
     78 H78        30.2364   24.3525    1.0935 H         1 UNK         0.0745 
     79 H79        33.1320   23.2009    3.3319 H         1 UNK         0.0705 
     80 H80        31.8248   22.5227    2.4016 H         1 UNK         0.0705 
     81 H81        32.7145   25.2598    4.7886 H         1 UNK         0.1334 
     82 H82        28.7352   25.5882    6.3508 H         1 UNK         0.1417 
     83 H83        29.5220   23.0046    3.0200 H         1 UNK         0.1562 
     84 H84        27.0724   23.8822    5.6461 H         1 UNK         0.0748 
     85 H85        27.4327   22.7960    4.3343 H         1 UNK         0.0748 
     86 H86        26.6136   26.2488    5.4767 H         1 UNK         0.0940 
     87 H87        25.2753   26.6720    4.4497 H         1 UNK         0.0940 
     88 H88        28.1982   27.2316    3.7526 H         1 UNK         0.0703 
     89 H89        25.9765   27.2836    2.0917 H         1 UNK         0.3081 
     90 H90        25.5315   29.2570    0.3690 H         1 UNK         0.0719 
     91 H91        28.3235   29.5951   -0.8422 H         1 UNK         0.0809 
     92 H92        26.8072   29.9375   -1.6726 H         1 UNK         0.0809 
     93 H93        27.2725   30.8924   -0.2804 H         1 UNK         0.0809 
     94 H94        27.0572   27.4977   -1.2869 H         1 UNK         0.2990 
     95 H95        25.5869   24.4853   -0.4049 H         1 UNK         0.0690 
     96 H96        24.4732   24.3783   -2.6214 H         1 UNK         0.0788 
     97 H97        24.5500   26.1339   -2.7702 H         1 UNK         0.0788 
     98 H98        23.5626   25.3964   -1.5186 H         1 UNK         0.0788 
     99 H99        27.4216   24.2039   -1.5701 H         1 UNK         0.2993 
    100 H100       28.4653   24.2378   -3.8917 H         1 UNK         0.0949 
    101 H101       29.7341   27.0119   -4.1797 H         1 UNK         0.0767 
    102 H102       30.2003   25.5614   -5.0691 H         1 UNK         0.0767 
    103 H103       28.6150   26.2703   -5.3155 H         1 UNK         0.0767 
    104 H104       30.6680   25.4888   -2.5047 H         1 UNK         0.3013 
    105 H105       29.1229   28.7507    4.9167 H         1 UNK         0.3121 
    106 H106       29.6284   30.4927    6.1304 H         1 UNK         0.0774 
    107 H107       28.1838   31.2243    7.9751 H         1 UNK         0.0815 
    108 H108       26.7786   30.4662    7.2460 H         1 UNK         0.0815 
    109 H109       28.1114   29.4766    7.8433 H         1 UNK         0.0815 
    110 H110       27.9683   30.8695    3.4509 H         1 UNK         0.2987 
    111 H111       27.6374   33.8415    3.6802 H         1 UNK         0.0949 
    112 H112       26.2226   33.6005    1.6378 H         1 UNK         0.0806 
    113 H113       26.4025   31.8527    1.7040 H         1 UNK         0.0806 
    114 H114       25.5670   32.7020    2.9970 H         1 UNK         0.0806 
    115 H115       28.8694   31.2250    1.5391 H         1 UNK         0.3010 
    116 H116       31.1832   32.9104    0.8162 H         1 UNK         0.0829 
    117 H117       29.4780   33.4650   -0.9321 H         1 UNK         0.0813 
    118 H118       30.8445   32.6034   -1.6153 H         1 UNK         0.0813 
    119 H119       29.3324   31.7569   -1.3408 H         1 UNK         0.0813 
    120 H120       30.0046   29.9246    1.7612 H         1 UNK         0.3038 
    121 H121       31.7726   28.0957    0.5231 H         1 UNK         0.0769 
    122 H122       31.1816   26.7467    2.6400 H         1 UNK         0.0811 
    123 H123       29.7948   27.3390    1.7503 H         1 UNK         0.0811 
    124 H124       30.3261   28.1533    3.2236 H         1 UNK         0.0811 
    125 H125       33.5357   26.9317    1.5541 H         1 UNK         0.3204 
    126 H126       35.6162   28.7156    2.5207 H         1 UNK         0.0748 
    127 H127       37.0526   26.7138    2.1812 H         1 UNK         0.0771 
    128 H128       35.6341   25.7184    1.8801 H         1 UNK         0.0771 
    129 H129       36.0615   27.0160    0.7650 H         1 UNK         0.0771 
    130 H130       33.9678   28.9976    4.4746 H         1 UNK         0.2980 
    131 H131       34.2598   27.0362    6.5955 H         1 UNK         0.0545 
    132 H132       37.3092   29.5776    7.1522 H         1 UNK         0.3459 
    133 H133       36.4908   29.4412    5.6154 H         1 UNK         0.3459 
    134 H134       33.0322   29.8247    6.7833 H         1 UNK         0.0616 
    135 H135       32.8399   28.5343    7.9445 H         1 UNK         0.0616 
    136 H136       30.5621   26.6134    7.5417 H         1 UNK         0.0634 
    137 H137       32.1975   26.1457    7.1504 H         1 UNK         0.0634 
@<TRIPOS>BOND
     1    1    2 1    
     2    1   72 1    
     3    1   73 1    
     4    1   74 1    
     5    2    3 2    
     6    2    4 am   BACKBONE|DICT|INTERRES
     7    4    5 1    
     8    4   75 1    
     9    5    6 1    
    10    5   35 1    
    11    5   76 1    
    12    6    7 1    
    13    6   77 1    
    14    6   78 1    
    15    7    8 1    
    16    8    9 1    
    17    8   79 1    
    18    8   80 1    
    19    9   10 ar   
    20    9   14 ar   
    21   10   11 ar   
    22   10   81 1    
    23   11   12 ar   
    24   11   71 1    
    25   12   13 ar   
    26   12   82 1    
    27   13   14 ar   
    28   13   15 1    
    29   14   83 1    
    30   15   16 1    
    31   15   84 1    
    32   15   85 1    
    33   16   17 1    
    34   17   18 1    
    35   17   86 1    
    36   17   87 1    
    37   18   19 1    
    38   18   37 1    
    39   18   88 1    
    40   19   20 am   BACKBONE|DICT|INTERRES
    41   19   89 1    
    42   20   21 2    
    43   20   22 1    
    44   22   23 1    
    45   22   24 1    
    46   22   90 1    
    47   23   91 1    
    48   23   92 1    
    49   23   93 1    
    50   24   25 am   BACKBONE|DICT|INTERRES
    51   24   94 1    
    52   25   26 2    
    53   25   27 1    
    54   27   28 1    
    55   27   29 1    
    56   27   95 1    
    57   28   96 1    
    58   28   97 1    
    59   28   98 1    
    60   29   30 am   BACKBONE|DICT|INTERRES
    61   29   99 1    
    62   30   31 2    
    63   30   32 1    
    64   32   33 1    
    65   32   34 1    
    66   32  100 1    
    67   33  101 1    
    68   33  102 1    
    69   33  103 1    
    70   34   35 am   BACKBONE|DICT|INTERRES
    71   34  104 1    
    72   35   36 2    
    73   37   38 2    
    74   37   39 am   BACKBONE|DICT|INTERRES
    75   39   40 1    
    76   39  105 1    
    77   40   41 1    
    78   40   42 1    
    79   40  106 1    
    80   41  107 1    
    81   41  108 1    
    82   41  109 1    
    83   42   43 2    
    84   42   44 am   BACKBONE|DICT|INTERRES
    85   44   45 1    
    86   44  110 1    
    87   45   46 1    
    88   45   47 1    
    89   45  111 1    
    90   46  112 1    
    91   46  113 1    
    92   46  114 1    
    93   47   48 2    
    94   47   49 am   BACKBONE|DICT|INTERRES
    95   49   50 1    
    96   49  115 1    
    97   50   51 1    
    98   50   52 1    
    99   50  116 1    
   100   51  117 1    
   101   51  118 1    
   102   51  119 1    
   103   52   53 2    
   104   52   54 am   BACKBONE|DICT|INTERRES
   105   54   55 1    
   106   54  120 1    
   107   55   56 1    
   108   55   57 1    
   109   55  121 1    
   110   56  122 1    
   111   56  123 1    
   112   56  124 1    
   113   57   58 2    
   114   57   59 am   BACKBONE|DICT|INTERRES
   115   59   60 1    
   116   59  125 1    
   117   60   61 1    
   118   60   62 1    
   119   60  126 1    
   120   61  127 1    
   121   61  128 1    
   122   61  129 1    
   123   62   63 2    
   124   62   64 am   BACKBONE|DICT|INTERRES
   125   64   65 1    
   126   64  130 1    
   127   65   66 1    
   128   65   69 1    
   129   65  131 1    
   130   66   67 am   BACKBONE|DICT|INTERRES
   131   66   68 2    
   132   67  132 1    
   133   67  133 1    
   134   69   70 1    
   135   69  134 1    
   136   69  135 1    
   137   70   71 1    
   138   71  136 1    
   139   71  137 1    
@<TRIPOS>SUBSTRUCTURE
     1 UNK         1 GROUP             0       ****    0 ROOT    
