@<TRIPOS>MOLECULE
3R136
137   139    1
SMALL
USER_CHARGES


@<TRIPOS>ATOM
      1 CA         28.9066   19.4421   -2.5003 C.3       0 UNK        -0.1979 
      2 C          29.1851   20.9379   -2.4836 C.2       0 UNK         0.4864 
      3 O          29.0942   21.5865   -3.5267 O.2       0 UNK        -0.5359 
      4 N          29.5262   21.4865   -1.3084 N.am      1 UNK        -0.4318 
      5 CA         29.8059   22.9138   -1.0939 C.3       1 UNK         0.0824 
      6 C6         30.5103   23.1529    0.2700 C.3       12 UNK        -0.0944 
      7 S7         31.8796   24.3528    0.1720 S.3       12 UNK        -0.2672 
      8 C8         32.9027   23.8740    1.6033 C.3       12 UNK         0.0333 
      9 C9         32.2840   24.3301    2.9174 C.ar      12 UNK        -0.0807 
     10 C10        32.6987   25.5213    3.5201 C.ar      12 UNK        -0.0894 
     11 C11        32.1239   25.9514    4.7196 C.ar      12 UNK        -0.0804 
     12 C12        31.1229   25.1811    5.3179 C.ar      12 UNK        -0.0824 
     13 C13        30.6748   24.0075    4.7040 C.ar      12 UNK        -0.0762 
     14 C14        31.2816   23.5702    3.5242 C.ar      12 UNK        -0.0782 
     15 C15        29.4879   23.2451    5.2720 C.3       12 UNK         0.0230 
     16 S16        27.9399   24.2056    5.1512 S.3       12 UNK        -0.2608 
     17 C17        27.9016   24.7498    3.4013 C.3       12 UNK        -0.0989 
     18 CA         28.3585   26.2233    3.2111 C.3       5 UNK         0.0716 
     19 N          28.5761   26.5864    1.8066 N.am      5 UNK        -0.4135 
     20 C          29.3240   27.6328    1.4159 C.2       4 UNK         0.5031 
     21 O          30.0199   28.2976    2.1819 O.2       4 UNK        -0.5229 
     22 CA         29.2540   28.0748   -0.0566 C.3       4 UNK         0.0329 
     23 CB         30.4754   27.5927   -0.8510 C.3       4 UNK        -0.2001 
     24 N          28.0195   27.6646   -0.7272 N.am      4 UNK        -0.4303 
     25 C          26.8264   28.2267   -0.4816 C.2       3 UNK         0.5044 
     26 O          26.6677   29.1663    0.2963 O.2       3 UNK        -0.5152 
     27 CA         25.5921   27.6132   -1.1652 C.3       3 UNK         0.0319 
     28 CB         25.3075   28.3261   -2.4960 C.3       3 UNK        -0.2001 
     29 N          25.6907   26.1701   -1.3970 N.am      3 UNK        -0.4354 
     30 C          25.9094   25.2412   -0.4556 C.2       2 UNK         0.4964 
     31 O          26.0564   25.5036    0.7398 O.2       2 UNK        -0.5047 
     32 CA         26.0277   23.7788   -0.9254 C.3       2 UNK         0.0288 
     33 CB         25.5248   23.5405   -2.3679 C.3       2 UNK        -0.2113 
     34 N          27.3895   23.2474   -0.7830 N.am      2 UNK        -0.4145 
     35 C          28.5338   23.7803   -1.2481 C.2       1 UNK         0.5006 
     36 O          28.6072   24.8787   -1.8027 O.2       1 UNK        -0.5103 
     37 C          27.3828   27.2195    3.8639 C.2       5 UNK         0.5055 
     38 O          27.6800   27.7376    4.9404 O.2       5 UNK        -0.5220 
     39 N          26.2584   27.4967    3.1843 N.am      6 UNK        -0.4450 
     40 CA         25.2139   28.4205    3.6407 C.3       6 UNK         0.0367 
     41 CB         24.0275   28.3848    2.6642 C.3       6 UNK        -0.1929 
     42 C          25.7158   29.8624    3.8398 C.2       6 UNK         0.5070 
     43 O          25.3914   30.4833    4.8521 O.2       6 UNK        -0.5237 
     44 N          26.5175   30.3568    2.8877 N.am      7 UNK        -0.4739 
     45 CA         27.1672   31.6689    2.9496 C.3       7 UNK         0.0276 
     46 CB         27.5044   32.1183    1.5179 C.3       7 UNK        -0.1927 
     47 C          28.4387   31.6849    3.8190 C.2       7 UNK         0.5013 
     48 O          28.9094   32.7715    4.1569 O.2       7 UNK        -0.5193 
     49 N          28.9892   30.4988    4.1251 N.am      8 UNK        -0.4253 
     50 CA         30.2813   30.2462    4.7798 C.3       8 UNK         0.0242 
     51 CB         30.2425   30.6793    6.2595 C.3       8 UNK        -0.2000 
     52 C          31.4697   30.8546    4.0037 C.2       8 UNK         0.4948 
     53 O          32.4267   31.3394    4.6105 O.2       8 UNK        -0.5275 
     54 N          31.3739   30.8267    2.6672 N.am      9 UNK        -0.4246 
     55 CA         32.1988   31.5898    1.7273 C.3       9 UNK         0.0261 
     56 CB         31.6525   31.4009    0.3025 C.3       9 UNK        -0.1959 
     57 C          33.6978   31.2624    1.7812 C.2       9 UNK         0.5033 
     58 O          34.5180   32.1777    1.7007 O.2       9 UNK        -0.5390 
     59 N          34.0260   29.9724    1.9224 N.am      10 UNK        -0.4215 
     60 CA         35.4053   29.4896    2.0309 C.3       10 UNK         0.0240 
     61 CB         35.4998   28.0887    1.4042 C.3       10 UNK        -0.1982 
     62 C          35.9309   29.4807    3.4785 C.2       10 UNK         0.4970 
     63 O          37.1374   29.3162    3.6649 O.2       10 UNK        -0.4916 
     64 N          35.0407   29.6371    4.4670 N.am      11 UNK        -0.4279 
     65 CA         35.3775   29.6401    5.8985 C.3       11 UNK         0.1003 
     66 C          35.6078   31.0753    6.4394 C.2       11 UNK         0.5709 
     67 N          34.8479   32.0695    5.9953 N.am      11 UNK        -0.7358 
     68 O          36.4929   31.2904    7.2641 O.2       11 UNK        -0.4999 
     69 C69        34.3137   28.8987    6.7486 C.3       12 UNK        -0.0954 
     70 S70        34.0957   27.1556    6.2517 S.3       12 UNK        -0.2268 
     71 C71        32.5367   27.2800    5.3297 C.3       12 UNK         0.0203 
     72 H72        27.8859   19.2547   -2.8329 H         1 UNK         0.0888 
     73 H73        29.5868   18.9417   -3.1889 H         1 UNK         0.0888 
     74 H74        29.0302   18.9920   -1.5154 H         1 UNK         0.0888 
     75 H75        29.5989   20.8929   -0.4942 H         1 UNK         0.3017 
     76 H76        30.4858   23.2135   -1.8949 H         1 UNK         0.0873 
     77 H77        30.9354   22.2187    0.6398 H         1 UNK         0.0745 
     78 H78        29.8089   23.4798    1.0372 H         1 UNK         0.0745 
     79 H79        33.8925   24.3177    1.4851 H         1 UNK         0.0705 
     80 H80        33.0560   22.7939    1.6100 H         1 UNK         0.0705 
     81 H81        33.4630   26.1212    3.0520 H         1 UNK         0.1334 
     82 H82        30.6487   25.5229    6.2280 H         1 UNK         0.1417 
     83 H83        30.9465   22.6551    3.0568 H         1 UNK         0.1562 
     84 H84        29.6784   23.0052    6.3190 H         1 UNK         0.0748 
     85 H85        29.3527   22.2922    4.7578 H         1 UNK         0.0748 
     86 H86        26.8880   24.6032    3.0257 H         1 UNK         0.0940 
     87 H87        28.5283   24.0816    2.8137 H         1 UNK         0.0940 
     88 H88        29.3164   26.3408    3.7173 H         1 UNK         0.0703 
     89 H89        27.9768   26.1309    1.1292 H         1 UNK         0.3081 
     90 H90        29.2845   29.1667   -0.0529 H         1 UNK         0.0719 
     91 H91        30.4532   26.5171   -1.0105 H         1 UNK         0.0809 
     92 H92        30.5229   28.0713   -1.8290 H         1 UNK         0.0809 
     93 H93        31.4049   27.8253   -0.3293 H         1 UNK         0.0809 
     94 H94        28.0748   26.8575   -1.3409 H         1 UNK         0.2990 
     95 H95        24.7395   27.7755   -0.5035 H         1 UNK         0.0690 
     96 H96        26.1108   28.1707   -3.2175 H         1 UNK         0.0788 
     97 H97        25.2059   29.4023   -2.3478 H         1 UNK         0.0788 
     98 H98        24.3784   27.9743   -2.9450 H         1 UNK         0.0788 
     99 H99        25.6140   25.8598   -2.3549 H         1 UNK         0.2993 
    100 H100       25.3926   23.1990   -0.2536 H         1 UNK         0.0949 
    101 H101       26.1500   24.0365   -3.1116 H         1 UNK         0.0767 
    102 H102       25.5231   22.4766   -2.6060 H         1 UNK         0.0767 
    103 H103       24.5008   23.8946   -2.4967 H         1 UNK         0.0767 
    104 H104       27.4533   22.3512   -0.3218 H         1 UNK         0.3013 
    105 H105       26.0924   27.0118    2.3099 H         1 UNK         0.3121 
    106 H106       24.8648   28.0585    4.6101 H         1 UNK         0.0774 
    107 H107       23.2093   29.0088    3.0260 H         1 UNK         0.0815 
    108 H108       24.3043   28.7555    1.6774 H         1 UNK         0.0815 
    109 H109       23.6365   27.3739    2.5472 H         1 UNK         0.0815 
    110 H110       26.6686   29.8114    2.0405 H         1 UNK         0.2987 
    111 H111       26.4684   32.3901    3.3795 H         1 UNK         0.0949 
    112 H112       28.2015   31.4328    1.0347 H         1 UNK         0.0806 
    113 H113       26.6088   32.1730    0.8987 H         1 UNK         0.0806 
    114 H114       27.9627   33.1082    1.5135 H         1 UNK         0.0806 
    115 H115       28.4980   29.6690    3.8195 H         1 UNK         0.3010 
    116 H116       30.4156   29.1653    4.7531 H         1 UNK         0.0829 
    117 H117       31.1500   30.3768    6.7819 H         1 UNK         0.0813 
    118 H118       30.1556   31.7614    6.3616 H         1 UNK         0.0813 
    119 H119       29.4016   30.2231    6.7819 H         1 UNK         0.0813 
    120 H120       30.6173   30.2766    2.2767 H         1 UNK         0.3038 
    121 H121       32.0902   32.6434    1.9935 H         1 UNK         0.0769 
    122 H122       32.2346   31.9772   -0.4182 H         1 UNK         0.0811 
    123 H123       30.6195   31.7397    0.2245 H         1 UNK         0.0811 
    124 H124       31.6890   30.3571   -0.0103 H         1 UNK         0.0811 
    125 H125       33.2853   29.2872    1.9703 H         1 UNK         0.3204 
    126 H126       36.0622   30.1484    1.4583 H         1 UNK         0.0748 
    127 H127       36.5280   27.7242    1.4162 H         1 UNK         0.0771 
    128 H128       34.8936   27.3626    1.9414 H         1 UNK         0.0771 
    129 H129       35.1732   28.0957    0.3640 H         1 UNK         0.0771 
    130 H130       34.0860   29.8727    4.2380 H         1 UNK         0.2980 
    131 H131       36.3175   29.1028    6.0400 H         1 UNK         0.0545 
    132 H132       34.0591   31.8830    5.3814 H         1 UNK         0.3459 
    133 H133       35.0036   33.0021    6.3418 H         1 UNK         0.3459 
    134 H134       34.6054   28.9003    7.8004 H         1 UNK         0.0616 
    135 H135       33.3550   29.4173    6.7019 H         1 UNK         0.0616 
    136 H136       31.7585   27.6463    6.0008 H         1 UNK         0.0634 
    137 H137       32.6424   28.0215    4.5374 H         1 UNK         0.0634 
@<TRIPOS>BOND
     1    1    2 1    
     2    1   72 1    
     3    1   73 1    
     4    1   74 1    
     5    2    3 2    
     6    2    4 am   BACKBONE|DICT|INTERRES
     7    4    5 1    
     8    4   75 1    
     9    5    6 1    
    10    5   35 1    
    11    5   76 1    
    12    6    7 1    
    13    6   77 1    
    14    6   78 1    
    15    7    8 1    
    16    8    9 1    
    17    8   79 1    
    18    8   80 1    
    19    9   10 ar   
    20    9   14 ar   
    21   10   11 ar   
    22   10   81 1    
    23   11   12 ar   
    24   11   71 1    
    25   12   13 ar   
    26   12   82 1    
    27   13   14 ar   
    28   13   15 1    
    29   14   83 1    
    30   15   16 1    
    31   15   84 1    
    32   15   85 1    
    33   16   17 1    
    34   17   18 1    
    35   17   86 1    
    36   17   87 1    
    37   18   19 1    
    38   18   37 1    
    39   18   88 1    
    40   19   20 am   BACKBONE|DICT|INTERRES
    41   19   89 1    
    42   20   21 2    
    43   20   22 1    
    44   22   23 1    
    45   22   24 1    
    46   22   90 1    
    47   23   91 1    
    48   23   92 1    
    49   23   93 1    
    50   24   25 am   BACKBONE|DICT|INTERRES
    51   24   94 1    
    52   25   26 2    
    53   25   27 1    
    54   27   28 1    
    55   27   29 1    
    56   27   95 1    
    57   28   96 1    
    58   28   97 1    
    59   28   98 1    
    60   29   30 am   BACKBONE|DICT|INTERRES
    61   29   99 1    
    62   30   31 2    
    63   30   32 1    
    64   32   33 1    
    65   32   34 1    
    66   32  100 1    
    67   33  101 1    
    68   33  102 1    
    69   33  103 1    
    70   34   35 am   BACKBONE|DICT|INTERRES
    71   34  104 1    
    72   35   36 2    
    73   37   38 2    
    74   37   39 am   BACKBONE|DICT|INTERRES
    75   39   40 1    
    76   39  105 1    
    77   40   41 1    
    78   40   42 1    
    79   40  106 1    
    80   41  107 1    
    81   41  108 1    
    82   41  109 1    
    83   42   43 2    
    84   42   44 am   BACKBONE|DICT|INTERRES
    85   44   45 1    
    86   44  110 1    
    87   45   46 1    
    88   45   47 1    
    89   45  111 1    
    90   46  112 1    
    91   46  113 1    
    92   46  114 1    
    93   47   48 2    
    94   47   49 am   BACKBONE|DICT|INTERRES
    95   49   50 1    
    96   49  115 1    
    97   50   51 1    
    98   50   52 1    
    99   50  116 1    
   100   51  117 1    
   101   51  118 1    
   102   51  119 1    
   103   52   53 2    
   104   52   54 am   BACKBONE|DICT|INTERRES
   105   54   55 1    
   106   54  120 1    
   107   55   56 1    
   108   55   57 1    
   109   55  121 1    
   110   56  122 1    
   111   56  123 1    
   112   56  124 1    
   113   57   58 2    
   114   57   59 am   BACKBONE|DICT|INTERRES
   115   59   60 1    
   116   59  125 1    
   117   60   61 1    
   118   60   62 1    
   119   60  126 1    
   120   61  127 1    
   121   61  128 1    
   122   61  129 1    
   123   62   63 2    
   124   62   64 am   BACKBONE|DICT|INTERRES
   125   64   65 1    
   126   64  130 1    
   127   65   66 1    
   128   65   69 1    
   129   65  131 1    
   130   66   67 am   BACKBONE|DICT|INTERRES
   131   66   68 2    
   132   67  132 1    
   133   67  133 1    
   134   69   70 1    
   135   69  134 1    
   136   69  135 1    
   137   70   71 1    
   138   71  136 1    
   139   71  137 1    
@<TRIPOS>SUBSTRUCTURE
     1 UNK         1 GROUP             0       ****    0 ROOT    
