@<TRIPOS>MOLECULE
3R136
137   139    1
SMALL
USER_CHARGES


@<TRIPOS>ATOM
      1 CA         28.0018   21.2097    0.7626 C.3       0 UNK        -0.1979 
      2 C          28.1531   22.2238   -0.3604 C.2       0 UNK         0.4864 
      3 O          27.6214   22.0118   -1.4514 O.2       0 UNK        -0.5359 
      4 N          28.8607   23.3330   -0.1035 N.am      1 UNK        -0.4318 
      5 CA         29.0544   24.4432   -1.0424 C.3       1 UNK         0.0824 
      6 C6         30.0661   25.4806   -0.5017 C.3       12 UNK        -0.0944 
      7 S7         31.7985   24.9455   -0.7257 S.3       12 UNK        -0.2672 
      8 C8         32.0755   23.7327    0.6134 C.3       12 UNK         0.0333 
      9 C9         31.6726   24.2378    1.9936 C.ar      12 UNK        -0.0807 
     10 C10        32.1220   25.4788    2.4537 C.ar      12 UNK        -0.0894 
     11 C11        31.7458   25.9505    3.7130 C.ar      12 UNK        -0.0804 
     12 C12        30.9157   25.1684    4.5216 C.ar      12 UNK        -0.0824 
     13 C13        30.4696   23.9173    4.0795 C.ar      12 UNK        -0.0762 
     14 C14        30.8607   23.4539    2.8197 C.ar      12 UNK        -0.0782 
     15 C15        29.5747   23.0581    4.9651 C.3       12 UNK         0.0230 
     16 S16        27.8539   22.9931    4.3611 S.3       12 UNK        -0.2608 
     17 C17        27.3818   24.7523    4.4285 C.3       12 UNK        -0.0989 
     18 CA         27.2766   25.3537    2.9991 C.3       5 UNK         0.0716 
     19 N          26.0832   24.9319    2.2536 N.am      5 UNK        -0.4135 
     20 C          24.8086   25.2169    2.5622 C.2       4 UNK         0.5031 
     21 O          24.4595   25.7421    3.6202 O.2       4 UNK        -0.5229 
     22 CA         23.7266   24.9032    1.5158 C.3       4 UNK         0.0329 
     23 CB         23.0711   26.2040    1.0165 C.3       4 UNK        -0.2001 
     24 N          24.2330   24.1685    0.3531 N.am      4 UNK        -0.4303 
     25 C          23.6579   23.0770   -0.1731 C.2       3 UNK         0.5044 
     26 O          22.7000   22.4986    0.3430 O.2       3 UNK        -0.5152 
     27 CA         24.2404   22.5267   -1.4945 C.3       3 UNK         0.0319 
     28 CB         23.1450   22.0047   -2.4486 C.3       3 UNK        -0.2001 
     29 N          25.1437   23.4567   -2.1865 N.am      3 UNK        -0.4354 
     30 C          24.8503   24.6656   -2.6982 C.2       2 UNK         0.4964 
     31 O          23.7083   25.1232   -2.7515 O.2       2 UNK        -0.5047 
     32 CA         26.0322   25.5284   -3.1974 C.3       2 UNK         0.0288 
     33 CB         25.7875   27.0341   -2.9601 C.3       2 UNK        -0.2113 
     34 N          27.3365   25.1256   -2.6486 N.am      2 UNK        -0.4145 
     35 C          27.6959   25.0955   -1.3563 C.2       1 UNK         0.5006 
     36 O          26.9846   25.4854   -0.4246 O.2       1 UNK        -0.5103 
     37 C          27.4106   26.8893    2.9568 C.2       5 UNK         0.5055 
     38 O          27.4719   27.5445    3.9998 O.2       5 UNK        -0.5220 
     39 N          27.4275   27.4304    1.7292 N.am      6 UNK        -0.4450 
     40 CA         27.6597   28.8454    1.4351 C.3       6 UNK         0.0367 
     41 CB         27.5199   29.0741   -0.0780 C.3       6 UNK        -0.1929 
     42 C          29.0376   29.3209    1.9307 C.2       6 UNK         0.5070 
     43 O          30.0116   28.5700    1.8452 O.2       6 UNK        -0.5237 
     44 N          29.0829   30.5575    2.4408 N.am      7 UNK        -0.4739 
     45 CA         30.2751   31.1764    3.0229 C.3       7 UNK         0.0276 
     46 CB         29.8689   32.4864    3.7183 C.3       7 UNK        -0.1927 
     47 C          31.3861   31.4367    1.9910 C.2       7 UNK         0.5013 
     48 O          31.0953   31.6776    0.8161 O.2       7 UNK        -0.5193 
     49 N          32.6341   31.4256    2.4672 N.am      8 UNK        -0.4253 
     50 CA         33.8386   31.6603    1.6789 C.3       8 UNK         0.0242 
     51 CB         34.2723   30.3645    0.9641 C.3       8 UNK        -0.2000 
     52 C          34.9195   32.2107    2.6139 C.2       8 UNK         0.4948 
     53 O          35.6731   31.4323    3.2032 O.2       8 UNK        -0.5275 
     54 N          34.9502   33.5436    2.7576 N.am      9 UNK        -0.4246 
     55 CA         35.8708   34.3196    3.5976 C.3       9 UNK         0.0261 
     56 CB         37.3051   34.2764    3.0200 C.3       9 UNK        -0.1959 
     57 C          35.7767   33.9031    5.0779 C.2       9 UNK         0.5033 
     58 O          34.7970   34.2558    5.7362 O.2       9 UNK        -0.5390 
     59 N          36.7776   33.1599    5.5687 N.am      10 UNK        -0.4215 
     60 CA         36.8198   32.5995    6.9209 C.3       10 UNK         0.0240 
     61 CB         38.2522   32.1337    7.2299 C.3       10 UNK        -0.1982 
     62 C          35.8204   31.4481    7.1394 C.2       10 UNK         0.4970 
     63 O          35.4181   31.2214    8.2813 O.2       10 UNK        -0.4916 
     64 N          35.4438   30.7410    6.0653 N.am      11 UNK        -0.4279 
     65 CA         34.4162   29.6952    6.0817 C.3       11 UNK         0.1003 
     66 C          33.0031   30.3287    6.1395 C.2       11 UNK         0.5709 
     67 N          32.1541   29.8985    7.0619 N.am      11 UNK        -0.7358 
     68 O          32.6639   31.1794    5.3197 O.2       11 UNK        -0.4999 
     69 C69        34.5719   28.7627    4.8546 C.3       12 UNK        -0.0954 
     70 S70        33.8141   27.1233    5.0962 S.3       12 UNK        -0.2268 
     71 C71        32.2472   27.3043    4.1883 C.3       12 UNK         0.0203 
     72 H72        26.9465   21.0072    0.9437 H         1 UNK         0.0888 
     73 H73        28.4868   20.2730    0.4896 H         1 UNK         0.0888 
     74 H74        28.4398   21.5615    1.6953 H         1 UNK         0.0888 
     75 H75        29.2666   23.4659    0.8099 H         1 UNK         0.3017 
     76 H76        29.4507   24.0235   -1.9700 H         1 UNK         0.0873 
     77 H77        29.9744   26.4243   -1.0436 H         1 UNK         0.0745 
     78 H78        29.8706   25.7289    0.5430 H         1 UNK         0.0745 
     79 H79        33.1357   23.4776    0.6339 H         1 UNK         0.0705 
     80 H80        31.5497   22.8101    0.3647 H         1 UNK         0.0705 
     81 H81        32.7611   26.0843    1.8255 H         1 UNK         0.1334 
     82 H82        30.6257   25.5329    5.4977 H         1 UNK         0.1417 
     83 H83        30.5320   22.4782    2.4899 H         1 UNK         0.1562 
     84 H84        29.5797   23.4246    5.9929 H         1 UNK         0.0748 
     85 H85        29.9730   22.0432    5.0039 H         1 UNK         0.0748 
     86 H86        28.1194   25.2855    5.0295 H         1 UNK         0.0940 
     87 H87        26.4446   24.8494    4.9765 H         1 UNK         0.0940 
     88 H88        28.1330   24.9912    2.4285 H         1 UNK         0.0703 
     89 H89        26.2698   24.5592    1.3334 H         1 UNK         0.3081 
     90 H90        22.9676   24.3144    2.0350 H         1 UNK         0.0719 
     91 H91        22.6492   26.7773    1.8432 H         1 UNK         0.0809 
     92 H92        23.7907   26.8455    0.5057 H         1 UNK         0.0809 
     93 H93        22.2581   25.9951    0.3208 H         1 UNK         0.0809 
     94 H94        25.0026   24.5928   -0.1506 H         1 UNK         0.2990 
     95 H95        24.8568   21.6728   -1.2101 H         1 UNK         0.0690 
     96 H96        22.4317   22.7852   -2.7147 H         1 UNK         0.0788 
     97 H97        22.5791   21.1935   -1.9890 H         1 UNK         0.0788 
     98 H98        23.5754   21.6139   -3.3706 H         1 UNK         0.0788 
     99 H99        26.1157   23.1603   -2.1852 H         1 UNK         0.2993 
    100 H100       26.0892   25.3658   -4.2749 H         1 UNK         0.0949 
    101 H101       25.5829   27.2464   -1.9107 H         1 UNK         0.0767 
    102 H102       26.6459   27.6326   -3.2649 H         1 UNK         0.0767 
    103 H103       24.9285   27.3857   -3.5328 H         1 UNK         0.0767 
    104 H104       27.9881   24.7567   -3.3284 H         1 UNK         0.3013 
    105 H105       27.3366   26.8111    0.9293 H         1 UNK         0.3121 
    106 H106       26.8850   29.4190    1.9483 H         1 UNK         0.0774 
    107 H107       27.7126   30.1162   -0.3366 H         1 UNK         0.0815 
    108 H108       28.2225   28.4621   -0.6450 H         1 UNK         0.0815 
    109 H109       26.5129   28.8382   -0.4202 H         1 UNK         0.0815 
    110 H110       28.2436   31.1186    2.4338 H         1 UNK         0.2987 
    111 H111       30.6606   30.4842    3.7746 H         1 UNK         0.0949 
    112 H112       29.1250   32.3103    4.4955 H         1 UNK         0.0806 
    113 H113       30.7283   32.9564    4.1991 H         1 UNK         0.0806 
    114 H114       29.4563   33.2076    3.0116 H         1 UNK         0.0806 
    115 H115       32.7720   31.3026    3.4700 H         1 UNK         0.3010 
    116 H116       33.6337   32.4162    0.9172 H         1 UNK         0.0829 
    117 H117       33.5157   30.0322    0.2531 H         1 UNK         0.0813 
    118 H118       35.1961   30.5199    0.4058 H         1 UNK         0.0813 
    119 H119       34.4490   29.5486    1.6646 H         1 UNK         0.0813 
    120 H120       34.2484   34.0873    2.2740 H         1 UNK         0.3038 
    121 H121       35.5337   35.3565    3.5531 H         1 UNK         0.0769 
    122 H122       37.3314   34.7046    2.0178 H         1 UNK         0.0811 
    123 H123       37.9943   34.8605    3.6318 H         1 UNK         0.0811 
    124 H124       37.6996   33.2623    2.9489 H         1 UNK         0.0811 
    125 H125       37.5244   32.8981    4.9411 H         1 UNK         0.3204 
    126 H126       36.5607   33.3938    7.6244 H         1 UNK         0.0748 
    127 H127       38.9627   32.9574    7.1552 H         1 UNK         0.0771 
    128 H128       38.3237   31.7381    8.2442 H         1 UNK         0.0771 
    129 H129       38.5771   31.3455    6.5493 H         1 UNK         0.0771 
    130 H130       35.7582   31.0297    5.1438 H         1 UNK         0.2980 
    131 H131       34.5733   29.0978    6.9824 H         1 UNK         0.0545 
    132 H132       32.4246   29.1938    7.7298 H         1 UNK         0.3459 
    133 H133       31.2305   30.2985    7.1016 H         1 UNK         0.3459 
    134 H134       34.1904   29.2308    3.9473 H         1 UNK         0.0616 
    135 H135       35.6307   28.5807    4.6634 H         1 UNK         0.0616 
    136 H136       32.3813   27.9633    3.3289 H         1 UNK         0.0634 
    137 H137       31.5056   27.7835    4.8293 H         1 UNK         0.0634 
@<TRIPOS>BOND
     1    1    2 1    
     2    1   72 1    
     3    1   73 1    
     4    1   74 1    
     5    2    3 2    
     6    2    4 am   BACKBONE|DICT|INTERRES
     7    4    5 1    
     8    4   75 1    
     9    5    6 1    
    10    5   35 1    
    11    5   76 1    
    12    6    7 1    
    13    6   77 1    
    14    6   78 1    
    15    7    8 1    
    16    8    9 1    
    17    8   79 1    
    18    8   80 1    
    19    9   10 ar   
    20    9   14 ar   
    21   10   11 ar   
    22   10   81 1    
    23   11   12 ar   
    24   11   71 1    
    25   12   13 ar   
    26   12   82 1    
    27   13   14 ar   
    28   13   15 1    
    29   14   83 1    
    30   15   16 1    
    31   15   84 1    
    32   15   85 1    
    33   16   17 1    
    34   17   18 1    
    35   17   86 1    
    36   17   87 1    
    37   18   19 1    
    38   18   37 1    
    39   18   88 1    
    40   19   20 am   BACKBONE|DICT|INTERRES
    41   19   89 1    
    42   20   21 2    
    43   20   22 1    
    44   22   23 1    
    45   22   24 1    
    46   22   90 1    
    47   23   91 1    
    48   23   92 1    
    49   23   93 1    
    50   24   25 am   BACKBONE|DICT|INTERRES
    51   24   94 1    
    52   25   26 2    
    53   25   27 1    
    54   27   28 1    
    55   27   29 1    
    56   27   95 1    
    57   28   96 1    
    58   28   97 1    
    59   28   98 1    
    60   29   30 am   BACKBONE|DICT|INTERRES
    61   29   99 1    
    62   30   31 2    
    63   30   32 1    
    64   32   33 1    
    65   32   34 1    
    66   32  100 1    
    67   33  101 1    
    68   33  102 1    
    69   33  103 1    
    70   34   35 am   BACKBONE|DICT|INTERRES
    71   34  104 1    
    72   35   36 2    
    73   37   38 2    
    74   37   39 am   BACKBONE|DICT|INTERRES
    75   39   40 1    
    76   39  105 1    
    77   40   41 1    
    78   40   42 1    
    79   40  106 1    
    80   41  107 1    
    81   41  108 1    
    82   41  109 1    
    83   42   43 2    
    84   42   44 am   BACKBONE|DICT|INTERRES
    85   44   45 1    
    86   44  110 1    
    87   45   46 1    
    88   45   47 1    
    89   45  111 1    
    90   46  112 1    
    91   46  113 1    
    92   46  114 1    
    93   47   48 2    
    94   47   49 am   BACKBONE|DICT|INTERRES
    95   49   50 1    
    96   49  115 1    
    97   50   51 1    
    98   50   52 1    
    99   50  116 1    
   100   51  117 1    
   101   51  118 1    
   102   51  119 1    
   103   52   53 2    
   104   52   54 am   BACKBONE|DICT|INTERRES
   105   54   55 1    
   106   54  120 1    
   107   55   56 1    
   108   55   57 1    
   109   55  121 1    
   110   56  122 1    
   111   56  123 1    
   112   56  124 1    
   113   57   58 2    
   114   57   59 am   BACKBONE|DICT|INTERRES
   115   59   60 1    
   116   59  125 1    
   117   60   61 1    
   118   60   62 1    
   119   60  126 1    
   120   61  127 1    
   121   61  128 1    
   122   61  129 1    
   123   62   63 2    
   124   62   64 am   BACKBONE|DICT|INTERRES
   125   64   65 1    
   126   64  130 1    
   127   65   66 1    
   128   65   69 1    
   129   65  131 1    
   130   66   67 am   BACKBONE|DICT|INTERRES
   131   66   68 2    
   132   67  132 1    
   133   67  133 1    
   134   69   70 1    
   135   69  134 1    
   136   69  135 1    
   137   70   71 1    
   138   71  136 1    
   139   71  137 1    
@<TRIPOS>SUBSTRUCTURE
     1 UNK         1 GROUP             0       ****    0 ROOT    
