@<TRIPOS>MOLECULE
3R136
137   139    1
SMALL
USER_CHARGES


@<TRIPOS>ATOM
      1 CA         27.0409   19.7813    1.5939 C.3       0 UNK        -0.1979 
      2 C          27.4065   20.2891    0.2067 C.2       0 UNK         0.4864 
      3 O          26.9409   19.7358   -0.7911 O.2       0 UNK        -0.5359 
      4 N          28.2422   21.3324    0.1381 N.am      1 UNK        -0.4318 
      5 CA         28.6337   22.0163   -1.0972 C.3       1 UNK         0.0824 
      6 C6         29.9599   22.8040   -0.9221 C.3       12 UNK        -0.0944 
      7 S7         29.9726   23.9864    0.4755 S.3       12 UNK        -0.2672 
      8 C8         31.1236   23.1380    1.6007 C.3       12 UNK         0.0333 
      9 C9         31.3482   23.9225    2.8836 C.ar      12 UNK        -0.0807 
     10 C10        32.5790   24.5375    3.1300 C.ar      12 UNK        -0.0894 
     11 C11        32.8099   25.2100    4.3345 C.ar      12 UNK        -0.0804 
     12 C12        31.7869   25.2824    5.2867 C.ar      12 UNK        -0.0824 
     13 C13        30.5527   24.6645    5.0572 C.ar      12 UNK        -0.0762 
     14 C14        30.3437   23.9829    3.8527 C.ar      12 UNK        -0.0782 
     15 C15        29.4884   24.6611    6.1510 C.3       12 UNK         0.0230 
     16 S16        27.8041   24.9845    5.5331 S.3       12 UNK        -0.2608 
     17 C17        27.8128   26.7968    5.3251 C.3       12 UNK        -0.0989 
     18 CA         28.1789   27.2667    3.8911 C.3       5 UNK         0.0716 
     19 N          27.4407   26.5922    2.8116 N.am      5 UNK        -0.4135 
     20 C          26.1151   26.5476    2.6157 C.2       4 UNK         0.5031 
     21 O          25.2937   27.0517    3.3849 O.2       4 UNK        -0.5229 
     22 CA         25.6362   25.8872    1.3086 C.3       4 UNK         0.0329 
     23 CB         24.1955   26.2946    0.9356 C.3       4 UNK        -0.2001 
     24 N          26.5280   26.1130    0.1631 N.am      4 UNK        -0.4303 
     25 C          26.9654   27.2896   -0.3210 C.2       3 UNK         0.5044 
     26 O          26.7484   28.3779    0.2159 O.2       3 UNK        -0.5152 
     27 CA         27.8063   27.2573   -1.6141 C.3       3 UNK         0.0319 
     28 CB         29.2899   27.5092   -1.3008 C.3       3 UNK        -0.2001 
     29 N          27.6914   26.0035   -2.3610 N.am      3 UNK        -0.4354 
     30 C          26.6034   25.6004   -3.0340 C.2       2 UNK         0.4964 
     31 O          25.6023   26.2981   -3.1971 O.2       2 UNK        -0.5047 
     32 CA         26.6205   24.1646   -3.5965 C.3       2 UNK         0.0288 
     33 CB         26.9383   24.1808   -5.1008 C.3       2 UNK        -0.2113 
     34 N          27.5571   23.2587   -2.9161 N.am      2 UNK        -0.4145 
     35 C          27.4995   22.9220   -1.6185 C.2       1 UNK         0.5006 
     36 O          26.6389   23.3479   -0.8428 O.2       1 UNK        -0.5103 
     37 C          28.1055   28.8086    3.8023 C.2       5 UNK         0.5055 
     38 O          29.1307   29.4703    3.9650 O.2       5 UNK        -0.5220 
     39 N          26.9099   29.3550    3.5476 N.am      6 UNK        -0.4450 
     40 CA         26.5884   30.7819    3.5049 C.3       6 UNK         0.0367 
     41 CB         25.0827   30.9541    3.2485 C.3       6 UNK        -0.1929 
     42 C          27.4040   31.5838    2.4797 C.2       6 UNK         0.5070 
     43 O          27.8781   32.6695    2.8141 O.2       6 UNK        -0.5237 
     44 N          27.5709   31.0417    1.2646 N.am      7 UNK        -0.4739 
     45 CA         28.3811   31.6694    0.2144 C.3       7 UNK         0.0276 
     46 CB         27.8364   31.2765   -1.1676 C.3       7 UNK        -0.1927 
     47 C          29.8769   31.3304    0.3392 C.2       7 UNK         0.5013 
     48 O          30.6963   32.0228   -0.2656 O.2       7 UNK        -0.5193 
     49 N          30.2113   30.2872    1.1139 N.am      8 UNK        -0.4253 
     50 CA         31.5877   29.9133    1.4484 C.3       8 UNK         0.0242 
     51 CB         31.6388   28.4418    1.8913 C.3       8 UNK        -0.2000 
     52 C          32.1646   30.8538    2.5215 C.2       8 UNK         0.4948 
     53 O          33.3145   31.2750    2.3968 O.2       8 UNK        -0.5275 
     54 N          31.3253   31.2045    3.5102 N.am      9 UNK        -0.4246 
     55 CA         31.5021   32.2595    4.5134 C.3       9 UNK         0.0261 
     56 CB         31.4362   33.6464    3.8380 C.3       9 UNK        -0.1959 
     57 C          32.7555   32.0750    5.3891 C.2       9 UNK         0.5033 
     58 O          33.5740   32.9917    5.4855 O.2       9 UNK        -0.5390 
     59 N          32.8558   30.8940    6.0198 N.am      10 UNK        -0.4215 
     60 CA         33.9375   30.4358    6.9036 C.3       10 UNK         0.0240 
     61 CB         34.0423   31.3128    8.1705 C.3       10 UNK        -0.1982 
     62 C          35.2733   30.3189    6.1474 C.2       10 UNK         0.4970 
     63 O          36.0928   31.2388    6.1850 O.2       10 UNK        -0.4916 
     64 N          35.4310   29.1856    5.4529 N.am      11 UNK        -0.4279 
     65 CA         36.5612   28.8182    4.5845 C.3       11 UNK         0.1003 
     66 C          37.9613   29.0288    5.2277 C.2       11 UNK         0.5709 
     67 N          38.9183   29.5601    4.4788 N.am      11 UNK        -0.7358 
     68 O          38.1959   28.6660    6.3794 O.2       11 UNK        -0.4999 
     69 C69        36.4339   27.3516    4.0901 C.3       12 UNK        -0.0954 
     70 S70        34.7955   26.9448    3.3953 S.3       12 UNK        -0.2268 
     71 C71        34.1905   25.7726    4.6507 C.3       12 UNK         0.0203 
     72 H72        27.3315   18.7364    1.7000 H         1 UNK         0.0888 
     73 H73        27.5345   20.3520    2.3804 H         1 UNK         0.0888 
     74 H74        25.9646   19.8537    1.7474 H         1 UNK         0.0888 
     75 H75        28.5542   21.7787    0.9878 H         1 UNK         0.3017 
     76 H76        28.8041   21.2511   -1.8582 H         1 UNK         0.0873 
     77 H77        30.2106   23.3516   -1.8325 H         1 UNK         0.0745 
     78 H78        30.7764   22.0918   -0.7939 H         1 UNK         0.0745 
     79 H79        30.7328   22.1493    1.8455 H         1 UNK         0.0705 
     80 H80        32.0712   22.9753    1.0845 H         1 UNK         0.0705 
     81 H81        33.3719   24.4686    2.3976 H         1 UNK         0.1334 
     82 H82        31.9669   25.7817    6.2290 H         1 UNK         0.1417 
     83 H83        29.4018   23.4824    3.6738 H         1 UNK         0.1562 
     84 H84        29.7285   25.3786    6.9371 H         1 UNK         0.0748 
     85 H85        29.4952   23.6787    6.6249 H         1 UNK         0.0748 
     86 H86        28.4976   27.2360    6.0532 H         1 UNK         0.0940 
     87 H87        26.8199   27.1559    5.6028 H         1 UNK         0.0940 
     88 H88        29.2240   27.0016    3.7233 H         1 UNK         0.0703 
     89 H89        28.0199   26.1615    2.1055 H         1 UNK         0.3081 
     90 H90        25.6413   24.8118    1.4929 H         1 UNK         0.0719 
     91 H91        24.1107   27.3705    0.7778 H         1 UNK         0.0809 
     92 H92        23.8671   25.7953    0.0239 H         1 UNK         0.0809 
     93 H93        23.4921   26.0228    1.7237 H         1 UNK         0.0809 
     94 H94        26.7693   25.2681   -0.3462 H         1 UNK         0.2990 
     95 H95        27.4462   28.0640   -2.2555 H         1 UNK         0.0690 
     96 H96        29.8836   27.5719   -2.2128 H         1 UNK         0.0788 
     97 H97        29.7128   26.7208   -0.6785 H         1 UNK         0.0788 
     98 H98        29.4252   28.4480   -0.7668 H         1 UNK         0.0788 
     99 H99        28.4731   25.3685   -2.2963 H         1 UNK         0.2993 
    100 H100       25.6154   23.7587   -3.4616 H         1 UNK         0.0949 
    101 H101       26.8581   23.1839   -5.5350 H         1 UNK         0.0767 
    102 H102       26.2406   24.8231   -5.6406 H         1 UNK         0.0767 
    103 H103       27.9440   24.5548   -5.2973 H         1 UNK         0.0767 
    104 H104       28.2964   22.8723   -3.4861 H         1 UNK         0.3013 
    105 H105       26.1330   28.7074    3.4339 H         1 UNK         0.3121 
    106 H106       26.8145   31.1910    4.4917 H         1 UNK         0.0774 
    107 H107       24.8079   32.0096    3.2238 H         1 UNK         0.0815 
    108 H108       24.7838   30.5153    2.2955 H         1 UNK         0.0815 
    109 H109       24.4901   30.4842    4.0337 H         1 UNK         0.0815 
    110 H110       27.1528   30.1391    1.0496 H         1 UNK         0.2987 
    111 H111       28.2945   32.7553    0.2994 H         1 UNK         0.0949 
    112 H112       27.9315   30.2093   -1.3531 H         1 UNK         0.0806 
    113 H113       26.7842   31.5419   -1.2697 H         1 UNK         0.0806 
    114 H114       28.3794   31.7921   -1.9608 H         1 UNK         0.0806 
    115 H115       29.4716   29.8109    1.6094 H         1 UNK         0.3010 
    116 H116       32.1968   30.0122    0.5470 H         1 UNK         0.0829 
    117 H117       31.1100   27.7901    1.1964 H         1 UNK         0.0813 
    118 H118       32.6706   28.0977    1.9232 H         1 UNK         0.0813 
    119 H119       31.2180   28.2887    2.8846 H         1 UNK         0.0813 
    120 H120       30.4365   30.7093    3.5621 H         1 UNK         0.3038 
    121 H121       30.6454   32.1858    5.1852 H         1 UNK         0.0769 
    122 H122       31.4667   34.4454    4.5797 H         1 UNK         0.0811 
    123 H123       30.5124   33.7659    3.2714 H         1 UNK         0.0811 
    124 H124       32.2711   33.8033    3.1540 H         1 UNK         0.0811 
    125 H125       32.1263   30.2175    5.8401 H         1 UNK         0.3204 
    126 H126       33.6617   29.4333    7.2356 H         1 UNK         0.0748 
    127 H127       34.7971   30.9182    8.8518 H         1 UNK         0.0771 
    128 H128       34.3239   32.3408    7.9404 H         1 UNK         0.0771 
    129 H129       33.0973   31.3392    8.7130 H         1 UNK         0.0771 
    130 H130       34.6874   28.5055    5.4750 H         1 UNK         0.2980 
    131 H131       36.4891   29.4728    3.7140 H         1 UNK         0.0545 
    132 H132       38.7397   29.8463    3.5286 H         1 UNK         0.3459 
    133 H133       39.8365   29.6867    4.8752 H         1 UNK         0.3459 
    134 H134       37.1757   27.1551    3.3138 H         1 UNK         0.0616 
    135 H135       36.6602   26.6554    4.9004 H         1 UNK         0.0616 
    136 H136       34.1913   26.2670    5.6232 H         1 UNK         0.0634 
    137 H137       34.8922   24.9406    4.7259 H         1 UNK         0.0634 
@<TRIPOS>BOND
     1    1    2 1    
     2    1   72 1    
     3    1   73 1    
     4    1   74 1    
     5    2    3 2    
     6    2    4 am   BACKBONE|DICT|INTERRES
     7    4    5 1    
     8    4   75 1    
     9    5    6 1    
    10    5   35 1    
    11    5   76 1    
    12    6    7 1    
    13    6   77 1    
    14    6   78 1    
    15    7    8 1    
    16    8    9 1    
    17    8   79 1    
    18    8   80 1    
    19    9   10 ar   
    20    9   14 ar   
    21   10   11 ar   
    22   10   81 1    
    23   11   12 ar   
    24   11   71 1    
    25   12   13 ar   
    26   12   82 1    
    27   13   14 ar   
    28   13   15 1    
    29   14   83 1    
    30   15   16 1    
    31   15   84 1    
    32   15   85 1    
    33   16   17 1    
    34   17   18 1    
    35   17   86 1    
    36   17   87 1    
    37   18   19 1    
    38   18   37 1    
    39   18   88 1    
    40   19   20 am   BACKBONE|DICT|INTERRES
    41   19   89 1    
    42   20   21 2    
    43   20   22 1    
    44   22   23 1    
    45   22   24 1    
    46   22   90 1    
    47   23   91 1    
    48   23   92 1    
    49   23   93 1    
    50   24   25 am   BACKBONE|DICT|INTERRES
    51   24   94 1    
    52   25   26 2    
    53   25   27 1    
    54   27   28 1    
    55   27   29 1    
    56   27   95 1    
    57   28   96 1    
    58   28   97 1    
    59   28   98 1    
    60   29   30 am   BACKBONE|DICT|INTERRES
    61   29   99 1    
    62   30   31 2    
    63   30   32 1    
    64   32   33 1    
    65   32   34 1    
    66   32  100 1    
    67   33  101 1    
    68   33  102 1    
    69   33  103 1    
    70   34   35 am   BACKBONE|DICT|INTERRES
    71   34  104 1    
    72   35   36 2    
    73   37   38 2    
    74   37   39 am   BACKBONE|DICT|INTERRES
    75   39   40 1    
    76   39  105 1    
    77   40   41 1    
    78   40   42 1    
    79   40  106 1    
    80   41  107 1    
    81   41  108 1    
    82   41  109 1    
    83   42   43 2    
    84   42   44 am   BACKBONE|DICT|INTERRES
    85   44   45 1    
    86   44  110 1    
    87   45   46 1    
    88   45   47 1    
    89   45  111 1    
    90   46  112 1    
    91   46  113 1    
    92   46  114 1    
    93   47   48 2    
    94   47   49 am   BACKBONE|DICT|INTERRES
    95   49   50 1    
    96   49  115 1    
    97   50   51 1    
    98   50   52 1    
    99   50  116 1    
   100   51  117 1    
   101   51  118 1    
   102   51  119 1    
   103   52   53 2    
   104   52   54 am   BACKBONE|DICT|INTERRES
   105   54   55 1    
   106   54  120 1    
   107   55   56 1    
   108   55   57 1    
   109   55  121 1    
   110   56  122 1    
   111   56  123 1    
   112   56  124 1    
   113   57   58 2    
   114   57   59 am   BACKBONE|DICT|INTERRES
   115   59   60 1    
   116   59  125 1    
   117   60   61 1    
   118   60   62 1    
   119   60  126 1    
   120   61  127 1    
   121   61  128 1    
   122   61  129 1    
   123   62   63 2    
   124   62   64 am   BACKBONE|DICT|INTERRES
   125   64   65 1    
   126   64  130 1    
   127   65   66 1    
   128   65   69 1    
   129   65  131 1    
   130   66   67 am   BACKBONE|DICT|INTERRES
   131   66   68 2    
   132   67  132 1    
   133   67  133 1    
   134   69   70 1    
   135   69  134 1    
   136   69  135 1    
   137   70   71 1    
   138   71  136 1    
   139   71  137 1    
@<TRIPOS>SUBSTRUCTURE
     1 UNK         1 GROUP             0       ****    0 ROOT    
