@<TRIPOS>MOLECULE
3R136
137   139    1
SMALL
USER_CHARGES


@<TRIPOS>ATOM
      1 CA         28.6323   18.6404    2.2805 C.3       0 UNK        -0.1979 
      2 C          28.5240   19.5691    1.0799 C.2       0 UNK         0.4864 
      3 O          28.5413   19.0980   -0.0584 O.2       0 UNK        -0.5359 
      4 N          28.4123   20.8777    1.3315 N.am      1 UNK        -0.4318 
      5 CA         28.2412   21.9306    0.3284 C.3       1 UNK         0.0824 
      6 C6         29.5014   22.8198    0.1650 C.3       12 UNK        -0.0944 
      7 S7         31.0240   21.9284   -0.3038 S.3       12 UNK        -0.2672 
      8 C8         31.8238   21.6157    1.3070 C.3       12 UNK         0.0333 
      9 C9         32.0681   22.8917    2.1012 C.ar      12 UNK        -0.0807 
     10 C10        33.1118   23.7532    1.7522 C.ar      12 UNK        -0.0894 
     11 C11        33.3285   24.9297    2.4753 C.ar      12 UNK        -0.0804 
     12 C12        32.4929   25.2424    3.5528 C.ar      12 UNK        -0.0824 
     13 C13        31.4452   24.3887    3.9109 C.ar      12 UNK        -0.0762 
     14 C14        31.2453   23.2106    3.1867 C.ar      12 UNK        -0.0782 
     15 C15        30.5383   24.7156    5.0900 C.3       12 UNK         0.0230 
     16 S16        29.0676   25.6661    4.5836 S.3       12 UNK        -0.2608 
     17 C17        29.7048   27.3754    4.6660 C.3       12 UNK        -0.0989 
     18 CA         29.1510   28.3284    3.5781 C.3       5 UNK         0.0716 
     19 N          29.3092   27.8163    2.2153 N.am      5 UNK        -0.4135 
     20 C          30.3921   28.0298    1.4571 C.2       4 UNK         0.5031 
     21 O          31.4245   28.5575    1.8713 O.2       4 UNK        -0.5229 
     22 CA         30.3228   27.6070   -0.0247 C.3       4 UNK         0.0329 
     23 CB         31.0667   26.2774   -0.2275 C.3       4 UNK        -0.2001 
     24 N          28.9650   27.4944   -0.5744 N.am      4 UNK        -0.4303 
     25 C          28.0467   28.4728   -0.6065 C.2       3 UNK         0.5044 
     26 O          28.2389   29.6106   -0.1828 O.2       3 UNK        -0.5152 
     27 CA         26.6483   28.1224   -1.1456 C.3       3 UNK         0.0319 
     28 CB         26.5319   28.5297   -2.6227 C.3       3 UNK        -0.2001 
     29 N          26.2201   26.7254   -0.9960 N.am      3 UNK        -0.4354 
     30 C          26.2337   25.9920    0.1271 C.2       2 UNK         0.4964 
     31 O          26.7752   26.3532    1.1745 O.2       2 UNK        -0.5047 
     32 CA         25.5275   24.6280    0.0689 C.3       2 UNK         0.0288 
     33 CB         24.4272   24.5437   -1.0099 C.3       2 UNK        -0.2113 
     34 N          26.5247   23.5903   -0.1778 N.am      2 UNK        -0.4145 
     35 C          27.0612   22.8132    0.7699 C.2       1 UNK         0.5006 
     36 O          26.6939   22.8054    1.9493 O.2       1 UNK        -0.5103 
     37 C          27.7231   28.8317    3.8734 C.2       5 UNK         0.5055 
     38 O          27.5574   29.5900    4.8302 O.2       5 UNK        -0.5220 
     39 N          26.7150   28.4540    3.0701 N.am      6 UNK        -0.4450 
     40 CA         25.3430   28.9540    3.2123 C.3       6 UNK         0.0367 
     41 CB         24.3610   27.9713    2.5539 C.3       6 UNK        -0.1929 
     42 C          25.1402   30.3654    2.6312 C.2       6 UNK         0.5070 
     43 O          24.2042   31.0458    3.0523 O.2       6 UNK        -0.5237 
     44 N          25.9805   30.7776    1.6708 N.am      7 UNK        -0.4739 
     45 CA         25.8499   32.0449    0.9417 C.3       7 UNK         0.0276 
     46 CB         25.1395   31.7842   -0.4007 C.3       7 UNK        -0.1927 
     47 C          27.2033   32.7522    0.7514 C.2       7 UNK         0.5013 
     48 O          27.3225   33.6052   -0.1303 O.2       7 UNK        -0.5193 
     49 N          28.1974   32.4014    1.5728 N.am      8 UNK        -0.4253 
     50 CA         29.5574   32.9301    1.5478 C.3       8 UNK         0.0242 
     51 CB         30.3660   32.2419    0.4299 C.3       8 UNK        -0.2000 
     52 C          30.1970   32.6793    2.9167 C.2       8 UNK         0.4948 
     53 O          29.6526   31.9102    3.7132 O.2       8 UNK        -0.5275 
     54 N          31.3513   33.3113    3.1617 N.am      9 UNK        -0.4246 
     55 CA         32.2038   33.0230    4.3162 C.3       9 UNK         0.0261 
     56 CB         33.2665   34.1249    4.4605 C.3       9 UNK        -0.1959 
     57 C          32.8624   31.6439    4.1462 C.2       9 UNK         0.5033 
     58 O          33.4014   31.3652    3.0717 O.2       9 UNK        -0.5390 
     59 N          32.7992   30.8155    5.1963 N.am      10 UNK        -0.4215 
     60 CA         33.3144   29.4453    5.2024 C.3       10 UNK         0.0240 
     61 CB         32.8632   28.7383    6.4915 C.3       10 UNK        -0.1982 
     62 C          34.8450   29.3867    5.0595 C.2       10 UNK         0.4970 
     63 O          35.5504   30.2622    5.5659 O.2       10 UNK        -0.4916 
     64 N          35.3159   28.3293    4.3936 N.am      11 UNK        -0.4279 
     65 CA         36.7311   28.0372    4.1240 C.3       11 UNK         0.1003 
     66 C          37.5606   27.5561    5.3523 C.2       11 UNK         0.5709 
     67 N          36.9538   27.2631    6.4967 N.am      11 UNK        -0.7358 
     68 O          38.7829   27.4620    5.2673 O.2       11 UNK        -0.4999 
     69 C69        36.8730   27.0860    2.9031 C.3       12 UNK        -0.0954 
     70 S70        35.9455   25.5224    3.0909 S.3       12 UNK        -0.2268 
     71 C71        34.4621   25.8672    2.0946 C.3       12 UNK         0.0203 
     72 H72        29.5654   18.0793    2.2368 H         1 UNK         0.0888 
     73 H73        28.6104   19.1875    3.2230 H         1 UNK         0.0888 
     74 H74        27.8063   17.9297    2.2815 H         1 UNK         0.0888 
     75 H75        28.2977   21.1995    2.2834 H         1 UNK         0.3017 
     76 H76        27.9852   21.4896   -0.6375 H         1 UNK         0.0873 
     77 H77        29.3310   23.5557   -0.6227 H         1 UNK         0.0745 
     78 H78        29.6737   23.4059    1.0661 H         1 UNK         0.0745 
     79 H79        31.2157   20.9163    1.8816 H         1 UNK         0.0705 
     80 H80        32.7755   21.1119    1.1326 H         1 UNK         0.0705 
     81 H81        33.7510   23.5086    0.9147 H         1 UNK         0.1334 
     82 H82        32.6646   26.1482    4.1152 H         1 UNK         0.1417 
     83 H83        30.4362   22.5476    3.4608 H         1 UNK         0.1562 
     84 H84        31.0891   25.2590    5.8594 H         1 UNK         0.0748 
     85 H85        30.2048   23.7900    5.5617 H         1 UNK         0.0748 
     86 H86        30.7893   27.3527    4.5745 H         1 UNK         0.0940 
     87 H87        29.5105   27.7719    5.6645 H         1 UNK         0.0940 
     88 H88        29.7491   29.2400    3.6464 H         1 UNK         0.0703 
     89 H89        28.5293   27.3079    1.8173 H         1 UNK         0.3081 
     90 H90        30.8363   28.3785   -0.6019 H         1 UNK         0.0719 
     91 H91        32.1150   26.3746    0.0575 H         1 UNK         0.0809 
     92 H92        31.0448   25.9538   -1.2681 H         1 UNK         0.0809 
     93 H93        30.6425   25.4837    0.3868 H         1 UNK         0.0809 
     94 H94        28.6977   26.5911   -0.9355 H         1 UNK         0.2990 
     95 H95        25.9367   28.7229   -0.5762 H         1 UNK         0.0690 
     96 H96        25.5063   28.4387   -2.9812 H         1 UNK         0.0788 
     97 H97        27.1682   27.9156   -3.2612 H         1 UNK         0.0788 
     98 H98        26.8310   29.5689   -2.7689 H         1 UNK         0.0788 
     99 H99        25.7629   26.3224   -1.8014 H         1 UNK         0.2993 
    100 H100       25.0496   24.4807    1.0402 H         1 UNK         0.0949 
    101 H101       23.7014   25.3507   -0.8972 H         1 UNK         0.0767 
    102 H102       24.8278   24.5912   -2.0232 H         1 UNK         0.0767 
    103 H103       23.8752   23.6073   -0.9240 H         1 UNK         0.0767 
    104 H104       26.8984   23.5408   -1.1152 H         1 UNK         0.3013 
    105 H105       26.8582   27.7485    2.3526 H         1 UNK         0.3121 
    106 H106       25.0994   28.9986    4.2762 H         1 UNK         0.0774 
    107 H107       23.3294   28.2572    2.7638 H         1 UNK         0.0815 
    108 H108       24.4736   27.9525    1.4700 H         1 UNK         0.0815 
    109 H109       24.4979   26.9566    2.9283 H         1 UNK         0.0815 
    110 H110       26.7402   30.1764    1.3729 H         1 UNK         0.2987 
    111 H111       25.2382   32.7420    1.5183 H         1 UNK         0.0949 
    112 H112       24.1835   31.2810   -0.2557 H         1 UNK         0.0806 
    113 H113       24.9345   32.7182   -0.9253 H         1 UNK         0.0806 
    114 H114       25.7493   31.1674   -1.0611 H         1 UNK         0.0806 
    115 H115       28.0222   31.7512    2.3294 H         1 UNK         0.3010 
    116 H116       29.5222   34.0078    1.3745 H         1 UNK         0.0829 
    117 H117       29.9062   32.3906   -0.5471 H         1 UNK         0.0813 
    118 H118       31.3812   32.6358    0.3725 H         1 UNK         0.0813 
    119 H119       30.4433   31.1667    0.5991 H         1 UNK         0.0813 
    120 H120       31.7503   33.8968    2.4422 H         1 UNK         0.3038 
    121 H121       31.5825   33.0216    5.2148 H         1 UNK         0.0769 
    122 H122       33.9151   34.1786    3.5850 H         1 UNK         0.0811 
    123 H123       33.9040   33.9388    5.3259 H         1 UNK         0.0811 
    124 H124       32.8079   35.1039    4.6004 H         1 UNK         0.0811 
    125 H125       32.3682   31.1410    6.0491 H         1 UNK         0.3204 
    126 H126       32.8660   28.9300    4.3495 H         1 UNK         0.0748 
    127 H127       33.1712   27.6919    6.4948 H         1 UNK         0.0771 
    128 H128       33.2915   29.2072    7.3786 H         1 UNK         0.0771 
    129 H129       31.7783   28.7538    6.5963 H         1 UNK         0.0771 
    130 H130       34.6686   27.6405    4.0446 H         1 UNK         0.2980 
    131 H131       37.1917   28.9834    3.8338 H         1 UNK         0.0545 
    132 H132       35.9539   27.3395    6.5802 H         1 UNK         0.3459 
    133 H133       37.5058   26.9593    7.2831 H         1 UNK         0.3459 
    134 H134       36.5319   27.5952    2.0004 H         1 UNK         0.0616 
    135 H135       37.9215   26.8457    2.7181 H         1 UNK         0.0616 
    136 H136       34.1403   26.9004    2.2326 H         1 UNK         0.0634 
    137 H137       34.7084   25.7632    1.0368 H         1 UNK         0.0634 
@<TRIPOS>BOND
     1    1    2 1    
     2    1   72 1    
     3    1   73 1    
     4    1   74 1    
     5    2    3 2    
     6    2    4 am   BACKBONE|DICT|INTERRES
     7    4    5 1    
     8    4   75 1    
     9    5    6 1    
    10    5   35 1    
    11    5   76 1    
    12    6    7 1    
    13    6   77 1    
    14    6   78 1    
    15    7    8 1    
    16    8    9 1    
    17    8   79 1    
    18    8   80 1    
    19    9   10 ar   
    20    9   14 ar   
    21   10   11 ar   
    22   10   81 1    
    23   11   12 ar   
    24   11   71 1    
    25   12   13 ar   
    26   12   82 1    
    27   13   14 ar   
    28   13   15 1    
    29   14   83 1    
    30   15   16 1    
    31   15   84 1    
    32   15   85 1    
    33   16   17 1    
    34   17   18 1    
    35   17   86 1    
    36   17   87 1    
    37   18   19 1    
    38   18   37 1    
    39   18   88 1    
    40   19   20 am   BACKBONE|DICT|INTERRES
    41   19   89 1    
    42   20   21 2    
    43   20   22 1    
    44   22   23 1    
    45   22   24 1    
    46   22   90 1    
    47   23   91 1    
    48   23   92 1    
    49   23   93 1    
    50   24   25 am   BACKBONE|DICT|INTERRES
    51   24   94 1    
    52   25   26 2    
    53   25   27 1    
    54   27   28 1    
    55   27   29 1    
    56   27   95 1    
    57   28   96 1    
    58   28   97 1    
    59   28   98 1    
    60   29   30 am   BACKBONE|DICT|INTERRES
    61   29   99 1    
    62   30   31 2    
    63   30   32 1    
    64   32   33 1    
    65   32   34 1    
    66   32  100 1    
    67   33  101 1    
    68   33  102 1    
    69   33  103 1    
    70   34   35 am   BACKBONE|DICT|INTERRES
    71   34  104 1    
    72   35   36 2    
    73   37   38 2    
    74   37   39 am   BACKBONE|DICT|INTERRES
    75   39   40 1    
    76   39  105 1    
    77   40   41 1    
    78   40   42 1    
    79   40  106 1    
    80   41  107 1    
    81   41  108 1    
    82   41  109 1    
    83   42   43 2    
    84   42   44 am   BACKBONE|DICT|INTERRES
    85   44   45 1    
    86   44  110 1    
    87   45   46 1    
    88   45   47 1    
    89   45  111 1    
    90   46  112 1    
    91   46  113 1    
    92   46  114 1    
    93   47   48 2    
    94   47   49 am   BACKBONE|DICT|INTERRES
    95   49   50 1    
    96   49  115 1    
    97   50   51 1    
    98   50   52 1    
    99   50  116 1    
   100   51  117 1    
   101   51  118 1    
   102   51  119 1    
   103   52   53 2    
   104   52   54 am   BACKBONE|DICT|INTERRES
   105   54   55 1    
   106   54  120 1    
   107   55   56 1    
   108   55   57 1    
   109   55  121 1    
   110   56  122 1    
   111   56  123 1    
   112   56  124 1    
   113   57   58 2    
   114   57   59 am   BACKBONE|DICT|INTERRES
   115   59   60 1    
   116   59  125 1    
   117   60   61 1    
   118   60   62 1    
   119   60  126 1    
   120   61  127 1    
   121   61  128 1    
   122   61  129 1    
   123   62   63 2    
   124   62   64 am   BACKBONE|DICT|INTERRES
   125   64   65 1    
   126   64  130 1    
   127   65   66 1    
   128   65   69 1    
   129   65  131 1    
   130   66   67 am   BACKBONE|DICT|INTERRES
   131   66   68 2    
   132   67  132 1    
   133   67  133 1    
   134   69   70 1    
   135   69  134 1    
   136   69  135 1    
   137   70   71 1    
   138   71  136 1    
   139   71  137 1    
@<TRIPOS>SUBSTRUCTURE
     1 UNK         1 GROUP             0       ****    0 ROOT    
