@<TRIPOS>MOLECULE
3R136
137   139    1
SMALL
USER_CHARGES


@<TRIPOS>ATOM
      1 CA         26.6620   22.3989   -3.3150 C.3       0 UNK        -0.1979 
      2 C          26.7602   21.0785   -2.5542 C.2       0 UNK         0.4864 
      3 O          26.0102   20.1523   -2.8570 O.2       0 UNK        -0.5359 
      4 N          27.6527   20.9374   -1.5620 N.am      1 UNK        -0.4318 
      5 CA         28.6010   21.9470   -1.0666 C.3       1 UNK         0.0824 
      6 C6         29.9314   21.2920   -0.6047 C.3       12 UNK        -0.0944 
      7 S7         31.3891   22.2541   -1.1337 S.3       12 UNK        -0.2672 
      8 C8         32.5794   21.8909    0.1923 C.3       12 UNK         0.0333 
      9 C9         32.4135   22.8245    1.3825 C.ar      12 UNK        -0.0807 
     10 C10        33.0241   24.0824    1.3718 C.ar      12 UNK        -0.0894 
     11 C11        32.9277   24.9329    2.4774 C.ar      12 UNK        -0.0804 
     12 C12        32.2177   24.5019    3.6030 C.ar      12 UNK        -0.0824 
     13 C13        31.5617   23.2667    3.6136 C.ar      12 UNK        -0.0762 
     14 C14        31.6750   22.4272    2.5011 C.ar      12 UNK        -0.0782 
     15 C15        30.7379   22.8208    4.8212 C.3       12 UNK         0.0230 
     16 S16        29.6719   24.1289    5.5295 S.3       12 UNK        -0.2608 
     17 C17        28.7153   24.6819    4.0776 C.3       12 UNK        -0.0989 
     18 CA         29.1883   26.0729    3.5749 C.3       5 UNK         0.0716 
     19 N          29.2120   26.1436    2.1112 N.am      5 UNK        -0.4135 
     20 C          29.7599   27.1422    1.4063 C.2       4 UNK         0.5031 
     21 O          30.3358   28.0998    1.9153 O.2       4 UNK        -0.5229 
     22 CA         29.6010   27.0884   -0.1191 C.3       4 UNK         0.0329 
     23 CB         30.6967   26.2143   -0.7508 C.3       4 UNK        -0.2001 
     24 N          28.2749   26.5941   -0.4961 N.am      4 UNK        -0.4303 
     25 C          27.1541   27.3292   -0.4311 C.2       3 UNK         0.5044 
     26 O          27.1361   28.5249   -0.1413 O.2       3 UNK        -0.5152 
     27 CA         25.8216   26.6070   -0.7071 C.3       3 UNK         0.0319 
     28 CB         25.5094   26.6084   -2.2120 C.3       3 UNK        -0.2001 
     29 N          25.7874   25.2305   -0.2048 N.am      3 UNK        -0.4354 
     30 C          25.8777   24.8844    1.0878 C.2       2 UNK         0.4964 
     31 O          25.9495   25.6949    2.0091 O.2       2 UNK        -0.5047 
     32 CA         25.9684   23.3806    1.4039 C.3       2 UNK         0.0288 
     33 CB         24.5637   22.7792    1.5662 C.3       2 UNK        -0.2113 
     34 N          26.7220   22.6055    0.4099 N.am      2 UNK        -0.4145 
     35 C          27.9873   22.8494    0.0294 C.2       1 UNK         0.5006 
     36 O          28.6532   23.7758    0.4924 O.2       1 UNK        -0.5103 
     37 C          28.4039   27.2364    4.2191 C.2       5 UNK         0.5055 
     38 O          28.8347   27.7738    5.2403 O.2       5 UNK        -0.5220 
     39 N          27.2873   27.6267    3.5910 N.am      6 UNK        -0.4450 
     40 CA         26.4642   28.7739    3.9732 C.3       6 UNK         0.0367 
     41 CB         25.0979   28.6547    3.2783 C.3       6 UNK        -0.1929 
     42 C          27.1033   30.1395    3.6554 C.2       6 UNK         0.5070 
     43 O          26.6709   31.1403    4.2293 O.2       6 UNK        -0.5237 
     44 N          28.0873   30.1852    2.7458 N.am      7 UNK        -0.4739 
     45 CA         28.7694   31.4128    2.3415 C.3       7 UNK         0.0276 
     46 CB         29.3738   31.2404    0.9374 C.3       7 UNK        -0.1927 
     47 C          29.8375   31.7930    3.3762 C.2       7 UNK         0.5013 
     48 O          30.9030   31.1713    3.4205 O.2       7 UNK        -0.5193 
     49 N          29.5447   32.8318    4.1713 N.am      8 UNK        -0.4253 
     50 CA         30.4161   33.3714    5.2221 C.3       8 UNK         0.0242 
     51 CB         29.7060   34.5382    5.9270 C.3       8 UNK        -0.2000 
     52 C          31.8053   33.8099    4.7233 C.2       8 UNK         0.4948 
     53 O          32.7834   33.6678    5.4566 O.2       8 UNK        -0.5275 
     54 N          31.8741   34.2880    3.4737 N.am      9 UNK        -0.4246 
     55 CA         33.1148   34.6479    2.7859 C.3       9 UNK         0.0261 
     56 CB         32.7702   35.4569    1.5243 C.3       9 UNK        -0.1959 
     57 C          34.0027   33.4411    2.4225 C.2       9 UNK         0.5033 
     58 O          35.2028   33.6359    2.2226 O.2       9 UNK        -0.5390 
     59 N          33.4188   32.2373    2.3234 N.am      10 UNK        -0.4215 
     60 CA         34.1304   31.0041    1.9911 C.3       10 UNK         0.0240 
     61 CB         33.2643   30.1266    1.0698 C.3       10 UNK        -0.1982 
     62 C          34.5304   30.2484    3.2639 C.2       10 UNK         0.4970 
     63 O          35.7225   30.0170    3.4697 O.2       10 UNK        -0.4916 
     64 N          33.5365   29.8782    4.0818 N.am      11 UNK        -0.4279 
     65 CA         33.6976   29.0284    5.2754 C.3       11 UNK         0.1003 
     66 C          32.9619   29.5888    6.5263 C.2       11 UNK         0.5709 
     67 N          32.6392   30.8732    6.5885 N.am      11 UNK        -0.7358 
     68 O          32.7054   28.8609    7.4825 O.2       11 UNK        -0.4999 
     69 C69        33.3431   27.5416    4.9797 C.3       12 UNK        -0.0954 
     70 S70        34.5615   26.7224    3.8908 S.3       12 UNK        -0.2268 
     71 C71        33.5610   26.3218    2.4223 C.3       12 UNK         0.0203 
     72 H72        27.5430   22.5454   -3.9394 H         1 UNK         0.0888 
     73 H73        25.7892   22.3985   -3.9678 H         1 UNK         0.0888 
     74 H74        26.5649   23.2466   -2.6393 H         1 UNK         0.0888 
     75 H75        27.6923   20.0461   -1.0866 H         1 UNK         0.3017 
     76 H76        28.8356   22.6157   -1.8961 H         1 UNK         0.0873 
     77 H77        29.9499   21.1302    0.4743 H         1 UNK         0.0745 
     78 H78        30.0478   20.3013   -1.0478 H         1 UNK         0.0745 
     79 H79        33.5882   21.9956   -0.2099 H         1 UNK         0.0705 
     80 H80        32.4866   20.8480    0.4998 H         1 UNK         0.0705 
     81 H81        33.5753   24.3970    0.4961 H         1 UNK         0.1334 
     82 H82        32.1481   25.1399    4.4707 H         1 UNK         0.1417 
     83 H83        31.1942   21.4588    2.5083 H         1 UNK         0.1562 
     84 H84        31.4187   22.4668    5.5963 H         1 UNK         0.0748 
     85 H85        30.1038   21.9728    4.5577 H         1 UNK         0.0748 
     86 H86        27.6516   24.6796    4.3249 H         1 UNK         0.0940 
     87 H87        28.8267   23.9298    3.2948 H         1 UNK         0.0940 
     88 H88        30.2221   26.2281    3.8804 H         1 UNK         0.0703 
     89 H89        28.8259   25.3537    1.6029 H         1 UNK         0.3081 
     90 H90        29.7171   28.1040   -0.5046 H         1 UNK         0.0719 
     91 H91        30.6713   25.1908   -0.3762 H         1 UNK         0.0809 
     92 H92        30.6020   26.1775   -1.8359 H         1 UNK         0.0809 
     93 H93        31.6864   26.6130   -0.5239 H         1 UNK         0.0809 
     94 H94        28.2000   25.6027   -0.6778 H         1 UNK         0.2990 
     95 H95        25.0349   27.1651   -0.1946 H         1 UNK         0.0690 
     96 H96        26.2490   26.0437   -2.7810 H         1 UNK         0.0788 
     97 H97        25.5026   27.6256   -2.6067 H         1 UNK         0.0788 
     98 H98        24.5283   26.1786   -2.4149 H         1 UNK         0.0788 
     99 H99        25.7059   24.4964   -0.8911 H         1 UNK         0.2993 
    100 H100       26.4927   23.2830    2.3566 H         1 UNK         0.0949 
    101 H101       23.9991   22.8099    0.6334 H         1 UNK         0.0767 
    102 H102       24.6119   21.7413    1.8964 H         1 UNK         0.0767 
    103 H103       23.9886   23.3276    2.3140 H         1 UNK         0.0767 
    104 H104       26.2462   21.8165   -0.0034 H         1 UNK         0.3013 
    105 H105       26.9487   27.0653    2.8126 H         1 UNK         0.3121 
    106 H106       26.3038   28.7329    5.0526 H         1 UNK         0.0774 
    107 H107       24.4411   29.4793    3.5587 H         1 UNK         0.0815 
    108 H108       25.1982   28.6703    2.1920 H         1 UNK         0.0815 
    109 H109       24.5915   27.7294    3.5539 H         1 UNK         0.0815 
    110 H110       28.4493   29.3211    2.3629 H         1 UNK         0.2987 
    111 H111       28.0343   32.2183    2.2771 H         1 UNK         0.0949 
    112 H112       30.1272   30.4552    0.9076 H         1 UNK         0.0806 
    113 H113       28.6060   30.9898    0.2051 H         1 UNK         0.0806 
    114 H114       29.8539   32.1610    0.6040 H         1 UNK         0.0806 
    115 H115       28.6314   33.2555    4.0851 H         1 UNK         0.3010 
    116 H116       30.5650   32.5753    5.9530 H         1 UNK         0.0829 
    117 H117       30.3235   34.9419    6.7308 H         1 UNK         0.0813 
    118 H118       29.4908   35.3567    5.2390 H         1 UNK         0.0813 
    119 H119       28.7649   34.2184    6.3750 H         1 UNK         0.0813 
    120 H120       31.0169   34.3767    2.9477 H         1 UNK         0.3038 
    121 H121       33.6957   35.2882    3.4534 H         1 UNK         0.0769 
    122 H122       33.6757   35.7717    1.0033 H         1 UNK         0.0811 
    123 H123       32.2115   36.3600    1.7709 H         1 UNK         0.0811 
    124 H124       32.1758   34.8739    0.8197 H         1 UNK         0.0811 
    125 H125       32.4414   32.1354    2.5765 H         1 UNK         0.3204 
    126 H126       35.0450   31.2408    1.4427 H         1 UNK         0.0748 
    127 H127       33.7943   29.2153    0.7900 H         1 UNK         0.0771 
    128 H128       32.3342   29.8232    1.5493 H         1 UNK         0.0771 
    129 H129       33.0088   30.6502    0.1486 H         1 UNK         0.0771 
    130 H130       32.5823   30.1498    3.8602 H         1 UNK         0.2980 
    131 H131       34.7445   29.0517    5.5822 H         1 UNK         0.0545 
    132 H132       32.8934   31.5224    5.8574 H         1 UNK         0.3459 
    133 H133       32.1857   31.2138    7.4203 H         1 UNK         0.3459 
    134 H134       33.3189   26.9529    5.8980 H         1 UNK         0.0616 
    135 H135       32.3407   27.4767    4.5534 H         1 UNK         0.0616 
    136 H136       34.2133   26.4012    1.5515 H         1 UNK         0.0634 
    137 H137       32.7845   27.0738    2.2842 H         1 UNK         0.0634 
@<TRIPOS>BOND
     1    1    2 1    
     2    1   72 1    
     3    1   73 1    
     4    1   74 1    
     5    2    3 2    
     6    2    4 am   BACKBONE|DICT|INTERRES
     7    4    5 1    
     8    4   75 1    
     9    5    6 1    
    10    5   35 1    
    11    5   76 1    
    12    6    7 1    
    13    6   77 1    
    14    6   78 1    
    15    7    8 1    
    16    8    9 1    
    17    8   79 1    
    18    8   80 1    
    19    9   10 ar   
    20    9   14 ar   
    21   10   11 ar   
    22   10   81 1    
    23   11   12 ar   
    24   11   71 1    
    25   12   13 ar   
    26   12   82 1    
    27   13   14 ar   
    28   13   15 1    
    29   14   83 1    
    30   15   16 1    
    31   15   84 1    
    32   15   85 1    
    33   16   17 1    
    34   17   18 1    
    35   17   86 1    
    36   17   87 1    
    37   18   19 1    
    38   18   37 1    
    39   18   88 1    
    40   19   20 am   BACKBONE|DICT|INTERRES
    41   19   89 1    
    42   20   21 2    
    43   20   22 1    
    44   22   23 1    
    45   22   24 1    
    46   22   90 1    
    47   23   91 1    
    48   23   92 1    
    49   23   93 1    
    50   24   25 am   BACKBONE|DICT|INTERRES
    51   24   94 1    
    52   25   26 2    
    53   25   27 1    
    54   27   28 1    
    55   27   29 1    
    56   27   95 1    
    57   28   96 1    
    58   28   97 1    
    59   28   98 1    
    60   29   30 am   BACKBONE|DICT|INTERRES
    61   29   99 1    
    62   30   31 2    
    63   30   32 1    
    64   32   33 1    
    65   32   34 1    
    66   32  100 1    
    67   33  101 1    
    68   33  102 1    
    69   33  103 1    
    70   34   35 am   BACKBONE|DICT|INTERRES
    71   34  104 1    
    72   35   36 2    
    73   37   38 2    
    74   37   39 am   BACKBONE|DICT|INTERRES
    75   39   40 1    
    76   39  105 1    
    77   40   41 1    
    78   40   42 1    
    79   40  106 1    
    80   41  107 1    
    81   41  108 1    
    82   41  109 1    
    83   42   43 2    
    84   42   44 am   BACKBONE|DICT|INTERRES
    85   44   45 1    
    86   44  110 1    
    87   45   46 1    
    88   45   47 1    
    89   45  111 1    
    90   46  112 1    
    91   46  113 1    
    92   46  114 1    
    93   47   48 2    
    94   47   49 am   BACKBONE|DICT|INTERRES
    95   49   50 1    
    96   49  115 1    
    97   50   51 1    
    98   50   52 1    
    99   50  116 1    
   100   51  117 1    
   101   51  118 1    
   102   51  119 1    
   103   52   53 2    
   104   52   54 am   BACKBONE|DICT|INTERRES
   105   54   55 1    
   106   54  120 1    
   107   55   56 1    
   108   55   57 1    
   109   55  121 1    
   110   56  122 1    
   111   56  123 1    
   112   56  124 1    
   113   57   58 2    
   114   57   59 am   BACKBONE|DICT|INTERRES
   115   59   60 1    
   116   59  125 1    
   117   60   61 1    
   118   60   62 1    
   119   60  126 1    
   120   61  127 1    
   121   61  128 1    
   122   61  129 1    
   123   62   63 2    
   124   62   64 am   BACKBONE|DICT|INTERRES
   125   64   65 1    
   126   64  130 1    
   127   65   66 1    
   128   65   69 1    
   129   65  131 1    
   130   66   67 am   BACKBONE|DICT|INTERRES
   131   66   68 2    
   132   67  132 1    
   133   67  133 1    
   134   69   70 1    
   135   69  134 1    
   136   69  135 1    
   137   70   71 1    
   138   71  136 1    
   139   71  137 1    
@<TRIPOS>SUBSTRUCTURE
     1 UNK         1 GROUP             0       ****    0 ROOT    
