@<TRIPOS>MOLECULE
3R136
137   139    1
SMALL
USER_CHARGES


@<TRIPOS>ATOM
      1 CA         26.6438   19.5719   -1.6029 C.3       0 UNK        -0.1979 
      2 C          27.3616   20.9000   -1.4162 C.2       0 UNK         0.4864 
      3 O          26.9757   21.8973   -2.0278 O.2       0 UNK        -0.5359 
      4 N          28.3954   20.9290   -0.5632 N.am      1 UNK        -0.4318 
      5 CA         29.2155   22.1139   -0.2747 C.3       1 UNK         0.0824 
      6 C6         30.5990   21.7323    0.3101 C.3       12 UNK        -0.0944 
      7 S7         30.5231   20.8695    1.9200 S.3       12 UNK        -0.2672 
      8 C8         32.1347   21.3096    2.6570 C.3       12 UNK         0.0333 
      9 C9         32.2768   22.8077    2.8953 C.ar      12 UNK        -0.0807 
     10 C10        33.2378   23.5487    2.1988 C.ar      12 UNK        -0.0894 
     11 C11        33.3438   24.9296    2.3907 C.ar      12 UNK        -0.0804 
     12 C12        32.4688   25.5713    3.2713 C.ar      12 UNK        -0.0824 
     13 C13        31.5121   24.8422    3.9799 C.ar      12 UNK        -0.0762 
     14 C14        31.4340   23.4571    3.8017 C.ar      12 UNK        -0.0782 
     15 C15        30.5373   25.5558    4.9039 C.3       12 UNK         0.0230 
     16 S16        28.8432   25.3452    4.2876 S.3       12 UNK        -0.2608 
     17 C17        28.0631   26.9532    4.6376 C.3       12 UNK        -0.0989 
     18 CA         28.4458   28.1122    3.6694 C.3       5 UNK         0.0716 
     19 N          28.7719   27.6683    2.3075 N.am      5 UNK        -0.4135 
     20 C          29.2797   28.4407    1.3344 C.2       4 UNK         0.5031 
     21 O          29.5324   29.6377    1.4559 O.2       4 UNK        -0.5229 
     22 CA         29.4918   27.7733   -0.0312 C.3       4 UNK         0.0329 
     23 CB         30.7954   26.9567   -0.0459 C.3       4 UNK        -0.2001 
     24 N          28.3534   26.9269   -0.3946 N.am      4 UNK        -0.4303 
     25 C          27.1435   27.4071   -0.7260 C.2       3 UNK         0.5044 
     26 O          26.8911   28.6080   -0.8173 O.2       3 UNK        -0.5152 
     27 CA         26.0087   26.3928   -0.9626 C.3       3 UNK         0.0319 
     28 CB         25.9371   26.0037   -2.4472 C.3       3 UNK        -0.2001 
     29 N          26.1231   25.1800   -0.1514 N.am      3 UNK        -0.4354 
     30 C          26.1221   25.1466    1.1894 C.2       2 UNK         0.4964 
     31 O          25.9488   26.1400    1.8975 O.2       2 UNK        -0.5047 
     32 CA         26.4104   23.7844    1.8496 C.3       2 UNK         0.0288 
     33 CB         25.0937   23.0526    2.1536 C.3       2 UNK        -0.2113 
     34 N          27.2878   22.8943    1.0758 N.am      2 UNK        -0.4145 
     35 C          28.4920   23.1978    0.5605 C.2       1 UNK         0.5006 
     36 O          29.0182   24.3041    0.6803 O.2       1 UNK        -0.5103 
     37 C          27.3260   29.1723    3.6693 C.2       5 UNK         0.5055 
     38 O          27.3676   30.1141    4.4614 O.2       5 UNK        -0.5220 
     39 N          26.3342   28.9821    2.7867 N.am      6 UNK        -0.4450 
     40 CA         25.2297   29.9135    2.5627 C.3       6 UNK         0.0367 
     41 CB         24.1526   29.2254    1.7091 C.3       6 UNK        -0.1929 
     42 C          25.6807   31.2296    1.9050 C.2       6 UNK         0.5070 
     43 O          25.1028   32.2757    2.2014 O.2       6 UNK        -0.5237 
     44 N          26.6861   31.1586    1.0215 N.am      7 UNK        -0.4739 
     45 CA         27.2312   32.3074    0.2992 C.3       7 UNK         0.0276 
     46 CB         28.0293   31.8247   -0.9231 C.3       7 UNK        -0.1927 
     47 C          28.0897   33.2251    1.1834 C.2       7 UNK         0.5013 
     48 O          27.9227   34.4439    1.1118 O.2       7 UNK        -0.5193 
     49 N          28.9945   32.6455    1.9835 N.am      8 UNK        -0.4253 
     50 CA         29.9535   33.3751    2.8160 C.3       8 UNK         0.0242 
     51 CB         31.0637   33.9775    1.9256 C.3       8 UNK        -0.2000 
     52 C          30.5590   32.4390    3.8686 C.2       8 UNK         0.4948 
     53 O          30.3256   31.2303    3.8334 O.2       8 UNK        -0.5275 
     54 N          31.4012   32.9908    4.7526 N.am      9 UNK        -0.4246 
     55 CA         32.2313   32.2426    5.7068 C.3       9 UNK         0.0261 
     56 CB         32.6697   33.1898    6.8398 C.3       9 UNK        -0.1959 
     57 C          33.4274   31.5491    5.0139 C.2       9 UNK         0.5033 
     58 O          34.5802   31.7575    5.3997 O.2       9 UNK        -0.5390 
     59 N          33.1291   30.7630    3.9737 N.am      10 UNK        -0.4215 
     60 CA         34.0810   30.0124    3.1597 C.3       10 UNK         0.0240 
     61 CB         33.3654   29.5535    1.8784 C.3       10 UNK        -0.1982 
     62 C          34.6575   28.8151    3.9321 C.2       10 UNK         0.4970 
     63 O          33.9790   28.2680    4.8042 O.2       10 UNK        -0.4916 
     64 N          35.8910   28.4282    3.5807 N.am      11 UNK        -0.4279 
     65 CA         36.6687   27.3384    4.2028 C.3       11 UNK         0.1003 
     66 C          37.0530   27.5765    5.6986 C.2       11 UNK         0.5709 
     67 N          36.9199   28.7826    6.2391 N.am      11 UNK        -0.7358 
     68 O          37.5233   26.6645    6.3751 O.2       11 UNK        -0.4999 
     69 C69        36.0483   25.9302    3.9558 C.3       12 UNK        -0.0954 
     70 S70        36.0849   25.4275    2.1997 S.3       12 UNK        -0.2268 
     71 C71        34.3830   25.7382    1.6286 C.3       12 UNK         0.0203 
     72 H72        25.5944   19.6700   -1.3261 H         1 UNK         0.0888 
     73 H73        26.6936   19.2631   -2.6467 H         1 UNK         0.0888 
     74 H74        27.0832   18.7817   -0.9944 H         1 UNK         0.0888 
     75 H75        28.6663   20.0875   -0.0727 H         1 UNK         0.3017 
     76 H76        29.4149   22.5924   -1.2363 H         1 UNK         0.0873 
     77 H77        31.2149   22.6282    0.3987 H         1 UNK         0.0745 
     78 H78        31.1285   21.0863   -0.3918 H         1 UNK         0.0745 
     79 H79        32.9326   20.9400    2.0109 H         1 UNK         0.0705 
     80 H80        32.2426   20.7864    3.6080 H         1 UNK         0.0705 
     81 H81        33.9012   23.0556    1.5014 H         1 UNK         0.1334 
     82 H82        32.5286   26.6419    3.4031 H         1 UNK         0.1417 
     83 H83        30.6834   22.8899    4.3354 H         1 UNK         0.1562 
     84 H84        30.7790   26.6177    4.9736 H         1 UNK         0.0748 
     85 H85        30.6136   25.1481    5.9126 H         1 UNK         0.0748 
     86 H86        28.2782   27.2392    5.6689 H         1 UNK         0.0940 
     87 H87        26.9882   26.7592    4.6070 H         1 UNK         0.0940 
     88 H88        29.3465   28.5916    4.0587 H         1 UNK         0.0703 
     89 H89        28.6002   26.6909    2.1138 H         1 UNK         0.3081 
     90 H90        29.5800   28.5615   -0.7823 H         1 UNK         0.0719 
     91 H91        30.9368   26.4488   -0.9998 H         1 UNK         0.0809 
     92 H92        31.6591   27.6044    0.1069 H         1 UNK         0.0809 
     93 H93        30.8160   26.2019    0.7412 H         1 UNK         0.0809 
     94 H94        28.4755   25.9266   -0.2661 H         1 UNK         0.2990 
     95 H95        25.0710   26.8819   -0.6911 H         1 UNK         0.0690 
     96 H96        25.8322   26.8879   -3.0778 H         1 UNK         0.0788 
     97 H97        25.0800   25.3606   -2.6484 H         1 UNK         0.0788 
     98 H98        26.8358   25.4763   -2.7702 H         1 UNK         0.0788 
     99 H99        26.2741   24.3132   -0.6488 H         1 UNK         0.2993 
    100 H100       26.9094   23.9827    2.7968 H         1 UNK         0.0949 
    101 H101       24.5616   22.7825    1.2405 H         1 UNK         0.0767 
    102 H102       25.2686   22.1403    2.7245 H         1 UNK         0.0767 
    103 H103       24.4268   23.6799    2.7472 H         1 UNK         0.0767 
    104 H104       26.9438   21.9596    0.9146 H         1 UNK         0.3013 
    105 H105       26.3329   28.1254    2.2415 H         1 UNK         0.3121 
    106 H106       24.7930   30.1586    3.5332 H         1 UNK         0.0774 
    107 H107       24.5298   28.9616    0.7205 H         1 UNK         0.0815 
    108 H108       23.2921   29.8802    1.5657 H         1 UNK         0.0815 
    109 H109       23.7914   28.3129    2.1840 H         1 UNK         0.0815 
    110 H110       27.0921   30.2548    0.8129 H         1 UNK         0.2987 
    111 H111       26.3914   32.9015   -0.0687 H         1 UNK         0.0949 
    112 H112       28.8734   31.1973   -0.6361 H         1 UNK         0.0806 
    113 H113       27.4016   31.2487   -1.6032 H         1 UNK         0.0806 
    114 H114       28.4279   32.6691   -1.4871 H         1 UNK         0.0806 
    115 H115       29.0749   31.6308    2.0204 H         1 UNK         0.3010 
    116 H116       29.4279   34.1739    3.3434 H         1 UNK         0.0829 
    117 H117       30.6580   34.6654    1.1839 H         1 UNK         0.0813 
    118 H118       31.7888   34.5431    2.5113 H         1 UNK         0.0813 
    119 H119       31.6113   33.1995    1.3917 H         1 UNK         0.0813 
    120 H120       31.5688   33.9856    4.7027 H         1 UNK         0.3038 
    121 H121       31.6220   31.4536    6.1532 H         1 UNK         0.0769 
    122 H122       33.2914   34.0050    6.4674 H         1 UNK         0.0811 
    123 H123       33.2497   32.6552    7.5933 H         1 UNK         0.0811 
    124 H124       31.8096   33.6270    7.3473 H         1 UNK         0.0811 
    125 H125       32.1418   30.6468    3.7568 H         1 UNK         0.3204 
    126 H126       34.8968   30.6854    2.8868 H         1 UNK         0.0748 
    127 H127       34.0618   29.0785    1.1871 H         1 UNK         0.0771 
    128 H128       32.5692   28.8401    2.0959 H         1 UNK         0.0771 
    129 H129       32.9170   30.3959    1.3506 H         1 UNK         0.0771 
    130 H130       36.3734   28.9397    2.8560 H         1 UNK         0.2980 
    131 H131       37.6308   27.3535    3.6898 H         1 UNK         0.0545 
    132 H132       37.1870   28.9220    7.2006 H         1 UNK         0.3459 
    133 H133       36.5301   29.5456    5.7083 H         1 UNK         0.3459 
    134 H134       36.6131   25.1646    4.4897 H         1 UNK         0.0616 
    135 H135       35.0362   25.8721    4.3544 H         1 UNK         0.0616 
    136 H136       34.3187   25.4928    0.5677 H         1 UNK         0.0634 
    137 H137       34.1741   26.8033    1.7054 H         1 UNK         0.0634 
@<TRIPOS>BOND
     1    1    2 1    
     2    1   72 1    
     3    1   73 1    
     4    1   74 1    
     5    2    3 2    
     6    2    4 am   BACKBONE|DICT|INTERRES
     7    4    5 1    
     8    4   75 1    
     9    5    6 1    
    10    5   35 1    
    11    5   76 1    
    12    6    7 1    
    13    6   77 1    
    14    6   78 1    
    15    7    8 1    
    16    8    9 1    
    17    8   79 1    
    18    8   80 1    
    19    9   10 ar   
    20    9   14 ar   
    21   10   11 ar   
    22   10   81 1    
    23   11   12 ar   
    24   11   71 1    
    25   12   13 ar   
    26   12   82 1    
    27   13   14 ar   
    28   13   15 1    
    29   14   83 1    
    30   15   16 1    
    31   15   84 1    
    32   15   85 1    
    33   16   17 1    
    34   17   18 1    
    35   17   86 1    
    36   17   87 1    
    37   18   19 1    
    38   18   37 1    
    39   18   88 1    
    40   19   20 am   BACKBONE|DICT|INTERRES
    41   19   89 1    
    42   20   21 2    
    43   20   22 1    
    44   22   23 1    
    45   22   24 1    
    46   22   90 1    
    47   23   91 1    
    48   23   92 1    
    49   23   93 1    
    50   24   25 am   BACKBONE|DICT|INTERRES
    51   24   94 1    
    52   25   26 2    
    53   25   27 1    
    54   27   28 1    
    55   27   29 1    
    56   27   95 1    
    57   28   96 1    
    58   28   97 1    
    59   28   98 1    
    60   29   30 am   BACKBONE|DICT|INTERRES
    61   29   99 1    
    62   30   31 2    
    63   30   32 1    
    64   32   33 1    
    65   32   34 1    
    66   32  100 1    
    67   33  101 1    
    68   33  102 1    
    69   33  103 1    
    70   34   35 am   BACKBONE|DICT|INTERRES
    71   34  104 1    
    72   35   36 2    
    73   37   38 2    
    74   37   39 am   BACKBONE|DICT|INTERRES
    75   39   40 1    
    76   39  105 1    
    77   40   41 1    
    78   40   42 1    
    79   40  106 1    
    80   41  107 1    
    81   41  108 1    
    82   41  109 1    
    83   42   43 2    
    84   42   44 am   BACKBONE|DICT|INTERRES
    85   44   45 1    
    86   44  110 1    
    87   45   46 1    
    88   45   47 1    
    89   45  111 1    
    90   46  112 1    
    91   46  113 1    
    92   46  114 1    
    93   47   48 2    
    94   47   49 am   BACKBONE|DICT|INTERRES
    95   49   50 1    
    96   49  115 1    
    97   50   51 1    
    98   50   52 1    
    99   50  116 1    
   100   51  117 1    
   101   51  118 1    
   102   51  119 1    
   103   52   53 2    
   104   52   54 am   BACKBONE|DICT|INTERRES
   105   54   55 1    
   106   54  120 1    
   107   55   56 1    
   108   55   57 1    
   109   55  121 1    
   110   56  122 1    
   111   56  123 1    
   112   56  124 1    
   113   57   58 2    
   114   57   59 am   BACKBONE|DICT|INTERRES
   115   59   60 1    
   116   59  125 1    
   117   60   61 1    
   118   60   62 1    
   119   60  126 1    
   120   61  127 1    
   121   61  128 1    
   122   61  129 1    
   123   62   63 2    
   124   62   64 am   BACKBONE|DICT|INTERRES
   125   64   65 1    
   126   64  130 1    
   127   65   66 1    
   128   65   69 1    
   129   65  131 1    
   130   66   67 am   BACKBONE|DICT|INTERRES
   131   66   68 2    
   132   67  132 1    
   133   67  133 1    
   134   69   70 1    
   135   69  134 1    
   136   69  135 1    
   137   70   71 1    
   138   71  136 1    
   139   71  137 1    
@<TRIPOS>SUBSTRUCTURE
     1 UNK         1 GROUP             0       ****    0 ROOT    
