@<TRIPOS>MOLECULE
3R136
137   139    1
SMALL
USER_CHARGES


@<TRIPOS>ATOM
      1 CA         28.1943   22.1321    0.0798 C.3       0 UNK        -0.1979 
      2 C          29.2091   22.9070   -0.7462 C.2       0 UNK         0.4864 
      3 O          29.6909   22.3995   -1.7597 O.2       0 UNK        -0.5359 
      4 N          29.5367   24.1307   -0.3153 N.am      1 UNK        -0.4318 
      5 CA         30.4289   25.0576   -1.0169 C.3       1 UNK         0.0824 
      6 C6         31.1323   26.0217   -0.0242 C.3       12 UNK        -0.0944 
      7 S7         32.7377   25.3737    0.5507 S.3       12 UNK        -0.2672 
      8 C8         32.2837   24.0499    1.7169 C.3       12 UNK         0.0333 
      9 C9         31.6927   24.5760    3.0170 C.ar      12 UNK        -0.0807 
     10 C10        32.5289   25.0964    4.0072 C.ar      12 UNK        -0.0894 
     11 C11        31.9997   25.5477    5.2185 C.ar      12 UNK        -0.0804 
     12 C12        30.6233   25.4508    5.4468 C.ar      12 UNK        -0.0824 
     13 C13        29.7719   24.9193    4.4716 C.ar      12 UNK        -0.0762 
     14 C14        30.3173   24.4999    3.2515 C.ar      12 UNK        -0.0782 
     15 C15        28.2698   24.8552    4.7493 C.3       12 UNK         0.0230 
     16 S16        27.3896   23.4967    3.8986 S.3       12 UNK        -0.2608 
     17 C17        25.8297   24.3258    3.4332 C.3       12 UNK        -0.0989 
     18 CA         25.8168   24.8032    1.9545 C.3       5 UNK         0.0716 
     19 N          24.4710   25.0156    1.4091 N.am      5 UNK        -0.4135 
     20 C          23.5068   25.8221    1.8762 C.2       4 UNK         0.5031 
     21 O          23.6167   26.4890    2.9073 O.2       4 UNK        -0.5229 
     22 CA         22.2292   25.9250    1.0159 C.3       4 UNK         0.0329 
     23 CB         21.3216   27.1059    1.4231 C.3       4 UNK        -0.2001 
     24 N          22.5213   25.9582   -0.4252 N.am      4 UNK        -0.4303 
     25 C          23.2719   26.8628   -1.0727 C.2       3 UNK         0.5044 
     26 O          23.7541   27.8726   -0.5549 O.2       3 UNK        -0.5152 
     27 CA         23.5376   26.5778   -2.5615 C.3       3 UNK         0.0319 
     28 CB         22.6482   27.4635   -3.4488 C.3       3 UNK        -0.2001 
     29 N          24.9434   26.7898   -2.9189 N.am      3 UNK        -0.4354 
     30 C          25.9819   26.1338   -2.3822 C.2       2 UNK         0.4964 
     31 O          25.8628   25.2254   -1.5533 O.2       2 UNK        -0.5047 
     32 CA         27.3847   26.5457   -2.8584 C.3       2 UNK         0.0288 
     33 CB         27.5415   28.0634   -3.0998 C.3       2 UNK        -0.2113 
     34 N          28.3568   26.0615   -1.8823 N.am      2 UNK        -0.4145 
     35 C          29.6522   25.8150   -2.1141 C.2       1 UNK         0.5006 
     36 O          30.2280   26.1179   -3.1608 O.2       1 UNK        -0.5103 
     37 C          26.7499   26.0083    1.7097 C.2       5 UNK         0.5055 
     38 O          27.8534   25.8087    1.1984 O.2       5 UNK        -0.5220 
     39 N          26.2870   27.2178    2.0546 N.am      6 UNK        -0.4450 
     40 CA         26.9956   28.4987    2.0028 C.3       6 UNK         0.0367 
     41 CB         27.3631   28.8789    0.5527 C.3       6 UNK        -0.1929 
     42 C          28.1708   28.5208    2.9969 C.2       6 UNK         0.5070 
     43 O          27.9372   28.3129    4.1882 O.2       6 UNK        -0.5237 
     44 N          29.3895   28.7923    2.5207 N.am      7 UNK        -0.4739 
     45 CA         30.6180   28.8270    3.3075 C.3       7 UNK         0.0276 
     46 CB         30.6636   30.1023    4.1751 C.3       7 UNK        -0.1927 
     47 C          31.8126   28.8031    2.3528 C.2       7 UNK         0.5013 
     48 O          31.6931   29.2695    1.2157 O.2       7 UNK        -0.5193 
     49 N          32.9650   28.3425    2.8526 N.am      8 UNK        -0.4253 
     50 CA         34.2676   28.4702    2.1968 C.3       8 UNK         0.0242 
     51 CB         35.2222   27.3881    2.7343 C.3       8 UNK        -0.2000 
     52 C          34.8081   29.8902    2.4272 C.2       8 UNK         0.4948 
     53 O          35.7095   30.0807    3.2492 O.2       8 UNK        -0.5275 
     54 N          34.1736   30.8706    1.7680 N.am      9 UNK        -0.4246 
     55 CA         34.3308   32.3260    1.9025 C.3       9 UNK         0.0261 
     56 CB         35.7460   32.7893    1.5007 C.3       9 UNK        -0.1959 
     57 C          33.9281   32.8496    3.2937 C.2       9 UNK         0.5033 
     58 O          32.9878   33.6379    3.3981 O.2       9 UNK        -0.5390 
     59 N          34.6342   32.3826    4.3266 N.am      10 UNK        -0.4215 
     60 CA         34.3890   32.6594    5.7411 C.3       10 UNK         0.0240 
     61 CB         35.2572   33.8522    6.1826 C.3       10 UNK        -0.1982 
     62 C          34.6281   31.4307    6.6403 C.2       10 UNK         0.4970 
     63 O          34.3736   31.5340    7.8408 O.2       10 UNK        -0.4916 
     64 N          35.1144   30.3092    6.0799 N.am      11 UNK        -0.4279 
     65 CA         35.4492   29.0592    6.7923 C.3       11 UNK         0.1003 
     66 C          36.6516   29.1754    7.7808 C.2       11 UNK         0.5709 
     67 N          37.4913   30.1996    7.6828 N.am      11 UNK        -0.7358 
     68 O          36.8536   28.3086    8.6283 O.2       11 UNK        -0.4999 
     69 C69        34.2095   28.3595    7.4262 C.3       12 UNK        -0.0954 
     70 S70        32.9319   27.9503    6.1916 S.3       12 UNK        -0.2268 
     71 C71        32.9168   26.1351    6.2793 C.3       12 UNK         0.0203 
     72 H72        28.1412   22.5045    1.1019 H         1 UNK         0.0888 
     73 H73        27.2050   22.2120   -0.3702 H         1 UNK         0.0888 
     74 H74        28.4668   21.0779    0.1236 H         1 UNK         0.0888 
     75 H75        29.0326   24.5418    0.4667 H         1 UNK         0.3017 
     76 H76        31.1940   24.4795   -1.5402 H         1 UNK         0.0873 
     77 H77        31.3532   26.9810   -0.4969 H         1 UNK         0.0745 
     78 H78        30.4995   26.2602    0.8323 H         1 UNK         0.0745 
     79 H79        31.6057   23.3456    1.2356 H         1 UNK         0.0705 
     80 H80        33.1835   23.4774    1.9466 H         1 UNK         0.0705 
     81 H81        33.5941   25.1473    3.8342 H         1 UNK         0.1334 
     82 H82        30.2142   25.8016    6.3847 H         1 UNK         0.1417 
     83 H83        29.6724   24.1016    2.4837 H         1 UNK         0.1562 
     84 H84        27.8393   25.8091    4.4556 H         1 UNK         0.0748 
     85 H85        28.0883   24.7557    5.8206 H         1 UNK         0.0748 
     86 H86        25.6121   25.1437    4.1227 H         1 UNK         0.0940 
     87 H87        25.0310   23.5982    3.5856 H         1 UNK         0.0940 
     88 H88        26.2128   23.9883    1.3478 H         1 UNK         0.0703 
     89 H89        24.3090   24.5729    0.5149 H         1 UNK         0.3081 
     90 H90        21.6705   25.0054    1.1962 H         1 UNK         0.0719 
     91 H91        21.8333   28.0640    1.3269 H         1 UNK         0.0809 
     92 H92        20.4207   27.1437    0.8109 H         1 UNK         0.0809 
     93 H93        21.0025   27.0127    2.4620 H         1 UNK         0.0809 
     94 H94        22.1648   25.1747   -0.9561 H         1 UNK         0.2990 
     95 H95        23.3013   25.5322   -2.7701 H         1 UNK         0.0690 
     96 H96        22.7871   27.2357   -4.5058 H         1 UNK         0.0788 
     97 H97        22.8609   28.5234   -3.3016 H         1 UNK         0.0788 
     98 H98        21.5925   27.3090   -3.2213 H         1 UNK         0.0788 
     99 H99        25.1328   27.5374   -3.5699 H         1 UNK         0.2993 
    100 H100       27.5617   26.0215   -3.8000 H         1 UNK         0.0949 
    101 H101       26.9409   28.3937   -3.9476 H         1 UNK         0.0767 
    102 H102       27.2353   28.6491   -2.2355 H         1 UNK         0.0767 
    103 H103       28.5737   28.3287   -3.3287 H         1 UNK         0.0767 
    104 H104       27.9498   25.7552   -1.0042 H         1 UNK         0.3013 
    105 H105       25.3622   27.2434    2.4757 H         1 UNK         0.3121 
    106 H106       26.2875   29.2468    2.3620 H         1 UNK         0.0774 
    107 H107       27.7819   29.8846    0.5018 H         1 UNK         0.0815 
    108 H108       28.0879   28.1943    0.1120 H         1 UNK         0.0815 
    109 H109       26.4722   28.8724   -0.0750 H         1 UNK         0.0815 
    110 H110       29.5262   28.9445    1.5290 H         1 UNK         0.2987 
    111 H111       30.6569   27.9395    3.9424 H         1 UNK         0.0949 
    112 H112       30.5469   31.0027    3.5706 H         1 UNK         0.0806 
    113 H113       29.8780   30.1013    4.9304 H         1 UNK         0.0806 
    114 H114       31.6132   30.1917    4.7039 H         1 UNK         0.0806 
    115 H115       32.9760   28.0099    3.8083 H         1 UNK         0.3010 
    116 H116       34.1563   28.3183    1.1208 H         1 UNK         0.0829 
    117 H117       34.9032   26.3942    2.4246 H         1 UNK         0.0813 
    118 H118       36.2319   27.5303    2.3468 H         1 UNK         0.0813 
    119 H119       35.2845   27.4009    3.8226 H         1 UNK         0.0813 
    120 H120       33.3896   30.5797    1.1922 H         1 UNK         0.3038 
    121 H121       33.6320   32.7659    1.1890 H         1 UNK         0.0769 
    122 H122       36.5201   32.3773    2.1483 H         1 UNK         0.0811 
    123 H123       35.8270   33.8759    1.5519 H         1 UNK         0.0811 
    124 H124       35.9796   32.4962    0.4772 H         1 UNK         0.0811 
    125 H125       35.3546   31.7021    4.0998 H         1 UNK         0.3204 
    126 H126       33.3387   32.9277    5.8739 H         1 UNK         0.0748 
    127 H127       35.0280   34.7447    5.5999 H         1 UNK         0.0771 
    128 H128       35.0849   34.0999    7.2309 H         1 UNK         0.0771 
    129 H129       36.3206   33.6402    6.0658 H         1 UNK         0.0771 
    130 H130       35.3072   30.2802    5.0848 H         1 UNK         0.2980 
    131 H131       35.8219   28.3899    6.0168 H         1 UNK         0.0545 
    132 H132       38.2715   30.2593    8.3179 H         1 UNK         0.3459 
    133 H133       37.3529   30.9104    6.9834 H         1 UNK         0.3459 
    134 H134       34.5050   27.4396    7.9332 H         1 UNK         0.0616 
    135 H135       33.7584   28.9879    8.1948 H         1 UNK         0.0616 
    136 H136       33.9330   25.7580    6.1525 H         1 UNK         0.0634 
    137 H137       32.5889   25.8224    7.2719 H         1 UNK         0.0634 
@<TRIPOS>BOND
     1    1    2 1    
     2    1   72 1    
     3    1   73 1    
     4    1   74 1    
     5    2    3 2    
     6    2    4 am   BACKBONE|DICT|INTERRES
     7    4    5 1    
     8    4   75 1    
     9    5    6 1    
    10    5   35 1    
    11    5   76 1    
    12    6    7 1    
    13    6   77 1    
    14    6   78 1    
    15    7    8 1    
    16    8    9 1    
    17    8   79 1    
    18    8   80 1    
    19    9   10 ar   
    20    9   14 ar   
    21   10   11 ar   
    22   10   81 1    
    23   11   12 ar   
    24   11   71 1    
    25   12   13 ar   
    26   12   82 1    
    27   13   14 ar   
    28   13   15 1    
    29   14   83 1    
    30   15   16 1    
    31   15   84 1    
    32   15   85 1    
    33   16   17 1    
    34   17   18 1    
    35   17   86 1    
    36   17   87 1    
    37   18   19 1    
    38   18   37 1    
    39   18   88 1    
    40   19   20 am   BACKBONE|DICT|INTERRES
    41   19   89 1    
    42   20   21 2    
    43   20   22 1    
    44   22   23 1    
    45   22   24 1    
    46   22   90 1    
    47   23   91 1    
    48   23   92 1    
    49   23   93 1    
    50   24   25 am   BACKBONE|DICT|INTERRES
    51   24   94 1    
    52   25   26 2    
    53   25   27 1    
    54   27   28 1    
    55   27   29 1    
    56   27   95 1    
    57   28   96 1    
    58   28   97 1    
    59   28   98 1    
    60   29   30 am   BACKBONE|DICT|INTERRES
    61   29   99 1    
    62   30   31 2    
    63   30   32 1    
    64   32   33 1    
    65   32   34 1    
    66   32  100 1    
    67   33  101 1    
    68   33  102 1    
    69   33  103 1    
    70   34   35 am   BACKBONE|DICT|INTERRES
    71   34  104 1    
    72   35   36 2    
    73   37   38 2    
    74   37   39 am   BACKBONE|DICT|INTERRES
    75   39   40 1    
    76   39  105 1    
    77   40   41 1    
    78   40   42 1    
    79   40  106 1    
    80   41  107 1    
    81   41  108 1    
    82   41  109 1    
    83   42   43 2    
    84   42   44 am   BACKBONE|DICT|INTERRES
    85   44   45 1    
    86   44  110 1    
    87   45   46 1    
    88   45   47 1    
    89   45  111 1    
    90   46  112 1    
    91   46  113 1    
    92   46  114 1    
    93   47   48 2    
    94   47   49 am   BACKBONE|DICT|INTERRES
    95   49   50 1    
    96   49  115 1    
    97   50   51 1    
    98   50   52 1    
    99   50  116 1    
   100   51  117 1    
   101   51  118 1    
   102   51  119 1    
   103   52   53 2    
   104   52   54 am   BACKBONE|DICT|INTERRES
   105   54   55 1    
   106   54  120 1    
   107   55   56 1    
   108   55   57 1    
   109   55  121 1    
   110   56  122 1    
   111   56  123 1    
   112   56  124 1    
   113   57   58 2    
   114   57   59 am   BACKBONE|DICT|INTERRES
   115   59   60 1    
   116   59  125 1    
   117   60   61 1    
   118   60   62 1    
   119   60  126 1    
   120   61  127 1    
   121   61  128 1    
   122   61  129 1    
   123   62   63 2    
   124   62   64 am   BACKBONE|DICT|INTERRES
   125   64   65 1    
   126   64  130 1    
   127   65   66 1    
   128   65   69 1    
   129   65  131 1    
   130   66   67 am   BACKBONE|DICT|INTERRES
   131   66   68 2    
   132   67  132 1    
   133   67  133 1    
   134   69   70 1    
   135   69  134 1    
   136   69  135 1    
   137   70   71 1    
   138   71  136 1    
   139   71  137 1    
@<TRIPOS>SUBSTRUCTURE
     1 UNK         1 GROUP             0       ****    0 ROOT    
