@<TRIPOS>MOLECULE
3R136
137   139    1
SMALL
USER_CHARGES


@<TRIPOS>ATOM
      1 CA         26.5194   22.3235    1.4524 C.3       0 UNK        -0.1979 
      2 C          27.7440   22.6242    0.6018 C.2       0 UNK         0.4864 
      3 O          27.8025   22.2147   -0.5586 O.2       0 UNK        -0.5359 
      4 N          28.7213   23.3505    1.1608 N.am      1 UNK        -0.4318 
      5 CA         29.9121   23.8255    0.4526 C.3       1 UNK         0.0824 
      6 C6         30.9940   24.3451    1.4280 C.3       12 UNK        -0.0944 
      7 S7         31.9760   22.9833    2.1509 S.3       12 UNK        -0.2672 
      8 C8         30.8936   22.2873    3.4478 C.3       12 UNK         0.0333 
      9 C9         30.3849   23.3415    4.4203 C.ar      12 UNK        -0.0807 
     10 C10        31.2919   24.1118    5.1521 C.ar      12 UNK        -0.0894 
     11 C11        30.8448   25.1247    6.0059 C.ar      12 UNK        -0.0804 
     12 C12        29.4698   25.3290    6.1557 C.ar      12 UNK        -0.0824 
     13 C13        28.5484   24.5525    5.4431 C.ar      12 UNK        -0.0762 
     14 C14        29.0124   23.5546    4.5821 C.ar      12 UNK        -0.0782 
     15 C15        27.0544   24.7804    5.6278 C.3       12 UNK         0.0230 
     16 S16        26.5630   26.4593    5.1222 S.3       12 UNK        -0.2608 
     17 C17        25.7927   26.2361    3.4758 C.3       12 UNK        -0.0989 
     18 CA         26.6853   26.6066    2.2507 C.3       5 UNK         0.0716 
     19 N          26.0147   26.4490    0.9509 N.am      5 UNK        -0.4135 
     20 C          24.9087   27.0969    0.5446 C.2       4 UNK         0.5031 
     21 O          24.1872   27.7630    1.2872 O.2       4 UNK        -0.5229 
     22 CA         24.5468   27.0538   -0.9508 C.3       4 UNK         0.0329 
     23 CB         24.8159   28.4240   -1.5966 C.3       4 UNK        -0.2001 
     24 N          25.2559   26.0377   -1.7249 N.am      4 UNK        -0.4303 
     25 C          24.9888   24.7283   -1.7328 C.2       3 UNK         0.5044 
     26 O          24.1384   24.2016   -1.0155 O.2       3 UNK        -0.5152 
     27 CA         25.8086   23.8548   -2.7009 C.3       3 UNK         0.0319 
     28 CB         25.1731   23.8311   -4.1047 C.3       3 UNK        -0.2001 
     29 N          27.2407   24.1889   -2.7550 N.am      3 UNK        -0.4354 
     30 C          27.8429   25.2970   -3.2215 C.2       2 UNK         0.4964 
     31 O          27.2347   26.2312   -3.7460 O.2       2 UNK        -0.5047 
     32 CA         29.3718   25.3984   -3.0250 C.3       2 UNK         0.0288 
     33 CB         29.8742   26.8578   -3.0181 C.3       2 UNK        -0.2113 
     34 N          29.8430   24.6756   -1.8356 N.am      2 UNK        -0.4145 
     35 C          29.4861   24.9015   -0.5619 C.2       1 UNK         0.5006 
     36 O          28.7997   25.8563   -0.1820 O.2       1 UNK        -0.5103 
     37 C          27.3250   28.0122    2.2828 C.2       5 UNK         0.5055 
     38 O          26.9135   28.8876    3.0475 O.2       5 UNK        -0.5220 
     39 N          28.3156   28.2155    1.4032 N.am      6 UNK        -0.4450 
     40 CA         29.0809   29.4573    1.2539 C.3       6 UNK         0.0367 
     41 CB         29.7027   29.4924   -0.1537 C.3       6 UNK        -0.1929 
     42 C          30.1340   29.6258    2.3673 C.2       6 UNK         0.5070 
     43 O          31.3139   29.8302    2.0766 O.2       6 UNK        -0.5237 
     44 N          29.6930   29.5192    3.6280 N.am      7 UNK        -0.4739 
     45 CA         30.5290   29.5572    4.8292 C.3       7 UNK         0.0276 
     46 CB         29.6669   29.2804    6.0694 C.3       7 UNK        -0.1927 
     47 C          31.3009   30.8743    4.9785 C.2       7 UNK         0.5013 
     48 O          32.5071   30.8439    5.2212 O.2       7 UNK        -0.5193 
     49 N          30.6230   32.0036    4.7300 N.am      8 UNK        -0.4253 
     50 CA         31.1856   33.3609    4.7174 C.3       8 UNK         0.0242 
     51 CB         30.0395   34.3746    4.8954 C.3       8 UNK        -0.2000 
     52 C          32.0484   33.6573    3.4679 C.2       8 UNK         0.4948 
     53 O          31.9876   34.7601    2.9212 O.2       8 UNK        -0.5275 
     54 N          32.8343   32.6651    3.0433 N.am      9 UNK        -0.4246 
     55 CA         33.7532   32.6784    1.9128 C.3       9 UNK         0.0261 
     56 CB         32.9972   32.7020    0.5687 C.3       9 UNK        -0.1959 
     57 C          34.6752   31.4592    2.0156 C.2       9 UNK         0.5033 
     58 O          35.8942   31.6268    2.0611 O.2       9 UNK        -0.5390 
     59 N          34.0829   30.2572    2.0682 N.am      10 UNK        -0.4215 
     60 CA         34.8069   28.9845    2.1045 C.3       10 UNK         0.0240 
     61 CB         33.8681   27.8536    1.6480 C.3       10 UNK        -0.1982 
     62 C          35.4031   28.6468    3.4807 C.2       10 UNK         0.4970 
     63 O          36.4345   27.9746    3.5278 O.2       10 UNK        -0.4916 
     64 N          34.7426   29.0811    4.5613 N.am      11 UNK        -0.4279 
     65 CA         35.0477   28.6911    5.9493 C.3       11 UNK         0.1003 
     66 C          35.6377   29.8523    6.7988 C.2       11 UNK         0.5709 
     67 N          35.9407   31.0105    6.2235 N.am      11 UNK        -0.7358 
     68 O          35.8498   29.6949    7.9991 O.2       11 UNK        -0.4999 
     69 C69        33.8200   28.0285    6.6391 C.3       12 UNK        -0.0954 
     70 S70        33.1185   26.6698    5.6457 S.3       12 UNK        -0.2268 
     71 C71        31.8405   26.0029    6.7573 C.3       12 UNK         0.0203 
     72 H72        25.6117   22.5412    0.8898 H         1 UNK         0.0888 
     73 H73        26.5042   21.2697    1.7289 H         1 UNK         0.0888 
     74 H74        26.4971   22.9195    2.3639 H         1 UNK         0.0888 
     75 H75        28.6251   23.6831    2.1070 H         1 UNK         0.3017 
     76 H76        30.3278   22.9819   -0.1036 H         1 UNK         0.0873 
     77 H77        30.5644   24.9716    2.2118 H         1 UNK         0.0745 
     78 H78        31.7078   24.9841    0.9037 H         1 UNK         0.0745 
     79 H79        30.0681   21.7536    2.9757 H         1 UNK         0.0705 
     80 H80        31.4566   21.5375    4.0052 H         1 UNK         0.0705 
     81 H81        32.3531   23.9433    5.0282 H         1 UNK         0.1334 
     82 H82        29.1093   26.0981    6.8248 H         1 UNK         0.1417 
     83 H83        28.3041   22.9364    4.0496 H         1 UNK         0.1562 
     84 H84        26.8134   24.6542    6.6842 H         1 UNK         0.0748 
     85 H85        26.4660   24.0333    5.0937 H         1 UNK         0.0748 
     86 H86        24.8932   26.8509    3.4895 H         1 UNK         0.0940 
     87 H87        25.4380   25.2102    3.3742 H         1 UNK         0.0940 
     88 H88        27.5158   25.8996    2.2517 H         1 UNK         0.0703 
     89 H89        26.5636   25.9800    0.2420 H         1 UNK         0.3081 
     90 H90        23.4764   26.8479   -1.0186 H         1 UNK         0.0719 
     91 H91        24.2724   29.2164   -1.0799 H         1 UNK         0.0809 
     92 H92        25.8756   28.6820   -1.5664 H         1 UNK         0.0809 
     93 H93        24.4960   28.4419   -2.6387 H         1 UNK         0.0809 
     94 H94        25.9621   26.3638   -2.3806 H         1 UNK         0.2990 
     95 H95        25.7631   22.8372   -2.3096 H         1 UNK         0.0690 
     96 H96        25.7173   23.1653   -4.7745 H         1 UNK         0.0788 
     97 H97        25.1480   24.8205   -4.5621 H         1 UNK         0.0788 
     98 H98        24.1439   23.4726   -4.0574 H         1 UNK         0.0788 
     99 H99        27.8245   23.5079   -2.2814 H         1 UNK         0.2993 
    100 H100       29.8186   24.8992   -3.8862 H         1 UNK         0.0949 
    101 H101       29.3740   27.4499   -2.2529 H         1 UNK         0.0767 
    102 H102       30.9478   26.9105   -2.8376 H         1 UNK         0.0767 
    103 H103       29.6823   27.3416   -3.9766 H         1 UNK         0.0767 
    104 H104       30.4067   23.8587   -2.0294 H         1 UNK         0.3013 
    105 H105       28.5914   27.4392    0.8046 H         1 UNK         0.3121 
    106 H106       28.3948   30.3030    1.3338 H         1 UNK         0.0774 
    107 H107       30.4019   28.6688   -0.3046 H         1 UNK         0.0815 
    108 H108       28.9355   29.4326   -0.9255 H         1 UNK         0.0815 
    109 H109       30.2511   30.4209   -0.3176 H         1 UNK         0.0815 
    110 H110       28.6993   29.3502    3.7570 H         1 UNK         0.2987 
    111 H111       31.2625   28.7550    4.7347 H         1 UNK         0.0949 
    112 H112       29.1539   28.3230    5.9858 H         1 UNK         0.0806 
    113 H113       30.2802   29.2442    6.9708 H         1 UNK         0.0806 
    114 H114       28.9091   30.0504    6.2183 H         1 UNK         0.0806 
    115 H115       29.6500   31.9181    4.4741 H         1 UNK         0.3010 
    116 H116       31.8489   33.4577    5.5797 H         1 UNK         0.0829 
    117 H117       29.3491   34.3534    4.0514 H         1 UNK         0.0813 
    118 H118       30.4236   35.3923    4.9778 H         1 UNK         0.0813 
    119 H119       29.4690   34.1748    5.8027 H         1 UNK         0.0813 
    120 H120       32.8460   31.8261    3.6161 H         1 UNK         0.3038 
    121 H121       34.3719   33.5754    1.9841 H         1 UNK         0.0769 
    122 H122       32.4329   33.6261    0.4449 H         1 UNK         0.0811 
    123 H123       32.2963   31.8715    0.4813 H         1 UNK         0.0811 
    124 H124       33.6912   32.6352   -0.2701 H         1 UNK         0.0811 
    125 H125       33.0640   30.1938    2.0222 H         1 UNK         0.3204 
    126 H126       35.6332   29.0424    1.3926 H         1 UNK         0.0748 
    127 H127       33.0337   27.7188    2.3382 H         1 UNK         0.0771 
    128 H128       33.4549   28.0528    0.6590 H         1 UNK         0.0771 
    129 H129       34.3993   26.9024    1.5936 H         1 UNK         0.0771 
    130 H130       33.9181   29.6609    4.4579 H         1 UNK         0.2980 
    131 H131       35.8369   27.9377    5.9407 H         1 UNK         0.0545 
    132 H132       35.7873   31.1426    5.2369 H         1 UNK         0.3459 
    133 H133       36.3293   31.7536    6.7819 H         1 UNK         0.3459 
    134 H134       33.0353   28.7640    6.8212 H         1 UNK         0.0616 
    135 H135       34.1005   27.6270    7.6145 H         1 UNK         0.0616 
    136 H136       32.3165   25.4203    7.5469 H         1 UNK         0.0634 
    137 H137       31.3261   26.8340    7.2418 H         1 UNK         0.0634 
@<TRIPOS>BOND
     1    1    2 1    
     2    1   72 1    
     3    1   73 1    
     4    1   74 1    
     5    2    3 2    
     6    2    4 am   BACKBONE|DICT|INTERRES
     7    4    5 1    
     8    4   75 1    
     9    5    6 1    
    10    5   35 1    
    11    5   76 1    
    12    6    7 1    
    13    6   77 1    
    14    6   78 1    
    15    7    8 1    
    16    8    9 1    
    17    8   79 1    
    18    8   80 1    
    19    9   10 ar   
    20    9   14 ar   
    21   10   11 ar   
    22   10   81 1    
    23   11   12 ar   
    24   11   71 1    
    25   12   13 ar   
    26   12   82 1    
    27   13   14 ar   
    28   13   15 1    
    29   14   83 1    
    30   15   16 1    
    31   15   84 1    
    32   15   85 1    
    33   16   17 1    
    34   17   18 1    
    35   17   86 1    
    36   17   87 1    
    37   18   19 1    
    38   18   37 1    
    39   18   88 1    
    40   19   20 am   BACKBONE|DICT|INTERRES
    41   19   89 1    
    42   20   21 2    
    43   20   22 1    
    44   22   23 1    
    45   22   24 1    
    46   22   90 1    
    47   23   91 1    
    48   23   92 1    
    49   23   93 1    
    50   24   25 am   BACKBONE|DICT|INTERRES
    51   24   94 1    
    52   25   26 2    
    53   25   27 1    
    54   27   28 1    
    55   27   29 1    
    56   27   95 1    
    57   28   96 1    
    58   28   97 1    
    59   28   98 1    
    60   29   30 am   BACKBONE|DICT|INTERRES
    61   29   99 1    
    62   30   31 2    
    63   30   32 1    
    64   32   33 1    
    65   32   34 1    
    66   32  100 1    
    67   33  101 1    
    68   33  102 1    
    69   33  103 1    
    70   34   35 am   BACKBONE|DICT|INTERRES
    71   34  104 1    
    72   35   36 2    
    73   37   38 2    
    74   37   39 am   BACKBONE|DICT|INTERRES
    75   39   40 1    
    76   39  105 1    
    77   40   41 1    
    78   40   42 1    
    79   40  106 1    
    80   41  107 1    
    81   41  108 1    
    82   41  109 1    
    83   42   43 2    
    84   42   44 am   BACKBONE|DICT|INTERRES
    85   44   45 1    
    86   44  110 1    
    87   45   46 1    
    88   45   47 1    
    89   45  111 1    
    90   46  112 1    
    91   46  113 1    
    92   46  114 1    
    93   47   48 2    
    94   47   49 am   BACKBONE|DICT|INTERRES
    95   49   50 1    
    96   49  115 1    
    97   50   51 1    
    98   50   52 1    
    99   50  116 1    
   100   51  117 1    
   101   51  118 1    
   102   51  119 1    
   103   52   53 2    
   104   52   54 am   BACKBONE|DICT|INTERRES
   105   54   55 1    
   106   54  120 1    
   107   55   56 1    
   108   55   57 1    
   109   55  121 1    
   110   56  122 1    
   111   56  123 1    
   112   56  124 1    
   113   57   58 2    
   114   57   59 am   BACKBONE|DICT|INTERRES
   115   59   60 1    
   116   59  125 1    
   117   60   61 1    
   118   60   62 1    
   119   60  126 1    
   120   61  127 1    
   121   61  128 1    
   122   61  129 1    
   123   62   63 2    
   124   62   64 am   BACKBONE|DICT|INTERRES
   125   64   65 1    
   126   64  130 1    
   127   65   66 1    
   128   65   69 1    
   129   65  131 1    
   130   66   67 am   BACKBONE|DICT|INTERRES
   131   66   68 2    
   132   67  132 1    
   133   67  133 1    
   134   69   70 1    
   135   69  134 1    
   136   69  135 1    
   137   70   71 1    
   138   71  136 1    
   139   71  137 1    
@<TRIPOS>SUBSTRUCTURE
     1 UNK         1 GROUP             0       ****    0 ROOT    
