@<TRIPOS>MOLECULE
3R136
137   139    1
SMALL
USER_CHARGES


@<TRIPOS>ATOM
      1 CA         29.1062   15.8536    0.6421 C.3       0 UNK        -0.1979 
      2 C          29.9489   17.0876    0.3543 C.2       0 UNK         0.4864 
      3 O          30.7236   17.0893   -0.6043 O.2       0 UNK        -0.5359 
      4 N          29.8106   18.1311    1.1815 N.am      1 UNK        -0.4318 
      5 CA         30.4781   19.4260    1.0194 C.3       1 UNK         0.0824 
      6 C6         30.6023   20.1716    2.3739 C.3       12 UNK        -0.0944 
      7 S7         29.0112   20.5436    3.1954 S.3       12 UNK        -0.2672 
      8 C8         29.5642   21.5083    4.6386 C.3       12 UNK         0.0333 
      9 C9         29.5563   23.0086    4.3710 C.ar      12 UNK        -0.0807 
     10 C10        30.5876   23.6010    3.6364 C.ar      12 UNK        -0.0894 
     11 C11        30.5965   24.9778    3.4047 C.ar      12 UNK        -0.0804 
     12 C12        29.5802   25.7729    3.9426 C.ar      12 UNK        -0.0824 
     13 C13        28.5474   25.1987    4.6899 C.ar      12 UNK        -0.0762 
     14 C14        28.5351   23.8135    4.8904 C.ar      12 UNK        -0.0782 
     15 C15        27.4578   26.0749    5.2944 C.3       12 UNK         0.0230 
     16 S16        26.1213   26.3831    4.0982 S.3       12 UNK        -0.2608 
     17 C17        26.0519   28.2116    4.0327 C.3       12 UNK        -0.0989 
     18 CA         27.2699   28.8602    3.3179 C.3       5 UNK         0.0716 
     19 N          27.5761   28.2459    2.0198 N.am      5 UNK        -0.4135 
     20 C          26.8589   28.3249    0.8894 C.2       4 UNK         0.5031 
     21 O          25.8284   28.9857    0.7536 O.2       4 UNK        -0.5229 
     22 CA         27.3810   27.4844   -0.2874 C.3       4 UNK         0.0329 
     23 CB         28.5744   28.1744   -0.9670 C.3       4 UNK        -0.2001 
     24 N          27.7579   26.1350    0.1457 N.am      4 UNK        -0.4303 
     25 C          26.8711   25.2050    0.5313 C.2       3 UNK         0.5044 
     26 O          25.6501   25.3599    0.4575 O.2       3 UNK        -0.5152 
     27 CA         27.4440   23.8877    1.0914 C.3       3 UNK         0.0319 
     28 CB         26.3736   22.7844    1.2259 C.3       3 UNK        -0.2001 
     29 N          28.6079   23.3720    0.3612 N.am      3 UNK        -0.4354 
     30 C          28.6888   23.0918   -0.9498 C.2       2 UNK         0.4964 
     31 O          27.8076   23.3387   -1.7736 O.2       2 UNK        -0.5047 
     32 CA         29.9695   22.3761   -1.4184 C.3       2 UNK         0.0288 
     33 CB         31.0790   23.3934   -1.7323 C.3       2 UNK        -0.2113 
     34 N          30.4698   21.3861   -0.4566 N.am      2 UNK        -0.4145 
     35 C          29.7993   20.2892   -0.0686 C.2       1 UNK         0.5006 
     36 O          28.6953   19.9691   -0.5202 O.2       1 UNK        -0.5103 
     37 C          27.1798   30.3995    3.2086 C.2       5 UNK         0.5055 
     38 O          26.2274   31.0131    3.6956 O.2       5 UNK        -0.5220 
     39 N          28.1726   30.9806    2.5253 N.am      6 UNK        -0.4450 
     40 CA         28.2939   32.4055    2.2342 C.3       6 UNK         0.0367 
     41 CB         29.2644   32.5760    1.0528 C.3       6 UNK        -0.1929 
     42 C          28.8014   33.1946    3.4489 C.2       6 UNK         0.5070 
     43 O          29.5109   32.6440    4.2954 O.2       6 UNK        -0.5237 
     44 N          28.4969   34.4987    3.4698 N.am      7 UNK        -0.4739 
     45 CA         28.9832   35.4750    4.4522 C.3       7 UNK         0.0276 
     46 CB         28.0204   36.6771    4.4795 C.3       7 UNK        -0.1927 
     47 C          30.4432   35.8886    4.1687 C.2       7 UNK         0.5013 
     48 O          30.7307   37.0666    3.9479 O.2       7 UNK        -0.5193 
     49 N          31.3306   34.8928    4.1559 N.am      8 UNK        -0.4253 
     50 CA         32.7662   34.9841    3.9146 C.3       8 UNK         0.0242 
     51 CB         33.0447   35.1032    2.3995 C.3       8 UNK        -0.2000 
     52 C          33.4121   33.7581    4.5783 C.2       8 UNK         0.4948 
     53 O          32.9447   33.3313    5.6369 O.2       8 UNK        -0.5275 
     54 N          34.4282   33.1591    3.9435 N.am      9 UNK        -0.4246 
     55 CA         35.1029   31.9287    4.3822 C.3       9 UNK         0.0261 
     56 CB         36.4887   31.8591    3.7128 C.3       9 UNK        -0.1959 
     57 C          34.2651   30.6513    4.1355 C.2       9 UNK         0.5033 
     58 O          34.8017   29.6463    3.6654 O.2       9 UNK        -0.5390 
     59 N          32.9612   30.7189    4.4390 N.am      10 UNK        -0.4215 
     60 CA         31.8994   29.7149    4.2892 C.3       10 UNK         0.0240 
     61 CB         32.1681   28.4860    5.1779 C.3       10 UNK        -0.1982 
     62 C          31.5817   29.3067    2.8375 C.2       10 UNK         0.4970 
     63 O          30.4054   29.2609    2.4801 O.2       10 UNK        -0.4916 
     64 N          32.6051   29.0198    2.0310 N.am      11 UNK        -0.4279 
     65 CA         32.5116   28.6572    0.6113 C.3       11 UNK         0.1003 
     66 C          33.6019   29.3939   -0.2095 C.2       11 UNK         0.5709 
     67 N          33.4230   29.4961   -1.5197 N.am      11 UNK        -0.7358 
     68 O          34.6113   29.8607    0.3157 O.2       11 UNK        -0.4999 
     69 C69        32.5770   27.1188    0.3908 C.3       12 UNK        -0.0954 
     70 S70        31.1027   26.2355    1.0021 S.3       12 UNK        -0.2268 
     71 C71        31.7159   25.6091    2.5932 C.3       12 UNK         0.0203 
     72 H72        29.7493   14.9896    0.8073 H         1 UNK         0.0888 
     73 H73        28.4806   15.9843    1.5250 H         1 UNK         0.0888 
     74 H74        28.4556   15.6383   -0.2051 H         1 UNK         0.0888 
     75 H75        29.1336   18.0911    1.9303 H         1 UNK         0.3017 
     76 H76        31.4934   19.2294    0.6670 H         1 UNK         0.0873 
     77 H77        31.1654   21.0930    2.2390 H         1 UNK         0.0745 
     78 H78        31.1981   19.5678    3.0606 H         1 UNK         0.0745 
     79 H79        28.9070   21.2753    5.4777 H         1 UNK         0.0705 
     80 H80        30.5618   21.1889    4.9435 H         1 UNK         0.0705 
     81 H81        31.3947   22.9952    3.2536 H         1 UNK         0.1334 
     82 H82        29.5986   26.8399    3.7773 H         1 UNK         0.1417 
     83 H83        27.7362   23.3638    5.4645 H         1 UNK         0.1562 
     84 H84        27.8885   27.0138    5.6443 H         1 UNK         0.0748 
     85 H85        27.0335   25.5946    6.1774 H         1 UNK         0.0748 
     86 H86        25.9550   28.5959    5.0498 H         1 UNK         0.0940 
     87 H87        25.1285   28.4854    3.5187 H         1 UNK         0.0940 
     88 H88        28.1430   28.6784    3.9444 H         1 UNK         0.0703 
     89 H89        28.4348   27.7167    1.9883 H         1 UNK         0.3081 
     90 H90        26.5785   27.3945   -1.0229 H         1 UNK         0.0719 
     91 H91        29.3940   28.3436   -0.2700 H         1 UNK         0.0809 
     92 H92        28.9559   27.5836   -1.7999 H         1 UNK         0.0809 
     93 H93        28.2834   29.1477   -1.3644 H         1 UNK         0.0809 
     94 H94        28.7447   25.9274    0.2215 H         1 UNK         0.2990 
     95 H95        27.7967   24.1220    2.0952 H         1 UNK         0.0690 
     96 H96        26.7927   21.8746    1.6543 H         1 UNK         0.0788 
     97 H97        25.9369   22.5279    0.2601 H         1 UNK         0.0788 
     98 H98        25.5617   23.1041    1.8803 H         1 UNK         0.0788 
     99 H99        29.4058   23.1431    0.9362 H         1 UNK         0.2993 
    100 H100       29.7229   21.8449   -2.3404 H         1 UNK         0.0949 
    101 H101       30.7243   24.1598   -2.4232 H         1 UNK         0.0767 
    102 H102       31.4296   23.9015   -0.8339 H         1 UNK         0.0767 
    103 H103       31.9375   22.9108   -2.1999 H         1 UNK         0.0767 
    104 H104       31.3792   21.5682   -0.0576 H         1 UNK         0.3013 
    105 H105       28.9624   30.3934    2.2663 H         1 UNK         0.3121 
    106 H106       27.3118   32.7880    1.9478 H         1 UNK         0.0774 
    107 H107       29.3679   33.6257    0.7747 H         1 UNK         0.0815 
    108 H108       30.2613   32.2031    1.2936 H         1 UNK         0.0815 
    109 H109       28.9121   32.0416    0.1703 H         1 UNK         0.0815 
    110 H110       27.9468   34.8745    2.7101 H         1 UNK         0.2987 
    111 H111       28.9671   35.0141    5.4427 H         1 UNK         0.0949 
    112 H112       28.3305   37.4088    5.2268 H         1 UNK         0.0806 
    113 H113       27.9842   37.1891    3.5171 H         1 UNK         0.0806 
    114 H114       27.0065   36.3680    4.7342 H         1 UNK         0.0806 
    115 H115       30.9874   33.9632    4.3866 H         1 UNK         0.3010 
    116 H116       33.1551   35.8692    4.4221 H         1 UNK         0.0829 
    117 H117       32.5223   35.9578    1.9691 H         1 UNK         0.0813 
    118 H118       34.1057   35.2543    2.1978 H         1 UNK         0.0813 
    119 H119       32.7202   34.2141    1.8568 H         1 UNK         0.0813 
    120 H120       34.7297   33.5422    3.0589 H         1 UNK         0.3038 
    121 H121       35.2621   31.9923    5.4608 H         1 UNK         0.0769 
    122 H122       37.0576   31.0023    4.0767 H         1 UNK         0.0811 
    123 H123       37.0802   32.7495    3.9267 H         1 UNK         0.0811 
    124 H124       36.4073   31.7594    2.6295 H         1 UNK         0.0811 
    125 H125       32.6598   31.5996    4.8492 H         1 UNK         0.3204 
    126 H126       30.9975   30.1967    4.6711 H         1 UNK         0.0748 
    127 H127       31.3299   27.7904    5.1503 H         1 UNK         0.0771 
    128 H128       33.0581   27.9404    4.8632 H         1 UNK         0.0771 
    129 H129       32.3079   28.7765    6.2191 H         1 UNK         0.0771 
    130 H130       33.5493   29.1356    2.3954 H         1 UNK         0.2980 
    131 H131       31.5604   29.0249    0.2242 H         1 UNK         0.0545 
    132 H132       32.6052   29.1139   -1.9681 H         1 UNK         0.3459 
    133 H133       34.1232   29.9656   -2.0721 H         1 UNK         0.3459 
    134 H134       33.4752   26.7023    0.8501 H         1 UNK         0.0616 
    135 H135       32.6514   26.8881   -0.6733 H         1 UNK         0.0616 
    136 H136       32.1623   26.4210    3.1641 H         1 UNK         0.0634 
    137 H137       32.5149   24.8904    2.4051 H         1 UNK         0.0634 
@<TRIPOS>BOND
     1    1    2 1    
     2    1   72 1    
     3    1   73 1    
     4    1   74 1    
     5    2    3 2    
     6    2    4 am   BACKBONE|DICT|INTERRES
     7    4    5 1    
     8    4   75 1    
     9    5    6 1    
    10    5   35 1    
    11    5   76 1    
    12    6    7 1    
    13    6   77 1    
    14    6   78 1    
    15    7    8 1    
    16    8    9 1    
    17    8   79 1    
    18    8   80 1    
    19    9   10 ar   
    20    9   14 ar   
    21   10   11 ar   
    22   10   81 1    
    23   11   12 ar   
    24   11   71 1    
    25   12   13 ar   
    26   12   82 1    
    27   13   14 ar   
    28   13   15 1    
    29   14   83 1    
    30   15   16 1    
    31   15   84 1    
    32   15   85 1    
    33   16   17 1    
    34   17   18 1    
    35   17   86 1    
    36   17   87 1    
    37   18   19 1    
    38   18   37 1    
    39   18   88 1    
    40   19   20 am   BACKBONE|DICT|INTERRES
    41   19   89 1    
    42   20   21 2    
    43   20   22 1    
    44   22   23 1    
    45   22   24 1    
    46   22   90 1    
    47   23   91 1    
    48   23   92 1    
    49   23   93 1    
    50   24   25 am   BACKBONE|DICT|INTERRES
    51   24   94 1    
    52   25   26 2    
    53   25   27 1    
    54   27   28 1    
    55   27   29 1    
    56   27   95 1    
    57   28   96 1    
    58   28   97 1    
    59   28   98 1    
    60   29   30 am   BACKBONE|DICT|INTERRES
    61   29   99 1    
    62   30   31 2    
    63   30   32 1    
    64   32   33 1    
    65   32   34 1    
    66   32  100 1    
    67   33  101 1    
    68   33  102 1    
    69   33  103 1    
    70   34   35 am   BACKBONE|DICT|INTERRES
    71   34  104 1    
    72   35   36 2    
    73   37   38 2    
    74   37   39 am   BACKBONE|DICT|INTERRES
    75   39   40 1    
    76   39  105 1    
    77   40   41 1    
    78   40   42 1    
    79   40  106 1    
    80   41  107 1    
    81   41  108 1    
    82   41  109 1    
    83   42   43 2    
    84   42   44 am   BACKBONE|DICT|INTERRES
    85   44   45 1    
    86   44  110 1    
    87   45   46 1    
    88   45   47 1    
    89   45  111 1    
    90   46  112 1    
    91   46  113 1    
    92   46  114 1    
    93   47   48 2    
    94   47   49 am   BACKBONE|DICT|INTERRES
    95   49   50 1    
    96   49  115 1    
    97   50   51 1    
    98   50   52 1    
    99   50  116 1    
   100   51  117 1    
   101   51  118 1    
   102   51  119 1    
   103   52   53 2    
   104   52   54 am   BACKBONE|DICT|INTERRES
   105   54   55 1    
   106   54  120 1    
   107   55   56 1    
   108   55   57 1    
   109   55  121 1    
   110   56  122 1    
   111   56  123 1    
   112   56  124 1    
   113   57   58 2    
   114   57   59 am   BACKBONE|DICT|INTERRES
   115   59   60 1    
   116   59  125 1    
   117   60   61 1    
   118   60   62 1    
   119   60  126 1    
   120   61  127 1    
   121   61  128 1    
   122   61  129 1    
   123   62   63 2    
   124   62   64 am   BACKBONE|DICT|INTERRES
   125   64   65 1    
   126   64  130 1    
   127   65   66 1    
   128   65   69 1    
   129   65  131 1    
   130   66   67 am   BACKBONE|DICT|INTERRES
   131   66   68 2    
   132   67  132 1    
   133   67  133 1    
   134   69   70 1    
   135   69  134 1    
   136   69  135 1    
   137   70   71 1    
   138   71  136 1    
   139   71  137 1    
@<TRIPOS>SUBSTRUCTURE
     1 UNK         1 GROUP             0       ****    0 ROOT    
