@<TRIPOS>MOLECULE
3R136
137   139    1
SMALL
USER_CHARGES


@<TRIPOS>ATOM
      1 CA         28.8152   18.4139   -0.3333 C.3       0 UNK        -0.1979 
      2 C          29.1767   19.8149   -0.8045 C.2       0 UNK         0.4864 
      3 O          29.7606   19.9676   -1.8787 O.2       0 UNK        -0.5359 
      4 N          28.8406   20.8384   -0.0082 N.am      1 UNK        -0.4318 
      5 CA         29.0532   22.2508   -0.3290 C.3       1 UNK         0.0824 
      6 C6         28.9717   23.1294    0.9441 C.3       12 UNK        -0.0944 
      7 S7         29.6149   24.8239    0.6940 S.3       12 UNK        -0.2672 
      8 C8         31.0527   24.8616    1.8230 C.3       12 UNK         0.0333 
      9 C9         30.6881   25.3316    3.2290 C.ar      12 UNK        -0.0807 
     10 C10        31.3439   26.4299    3.7979 C.ar      12 UNK        -0.0894 
     11 C11        31.0090   26.8720    5.0826 C.ar      12 UNK        -0.0804 
     12 C12        29.9812   26.2363    5.7846 C.ar      12 UNK        -0.0824 
     13 C13        29.3163   25.1414    5.2278 C.ar      12 UNK        -0.0762 
     14 C14        29.7008   24.6730    3.9693 C.ar      12 UNK        -0.0782 
     15 C15        28.1560   24.4848    5.9632 C.3       12 UNK         0.0230 
     16 S16        26.6104   24.5499    4.9932 S.3       12 UNK        -0.2608 
     17 C17        26.3854   26.3488    4.7557 C.3       12 UNK        -0.0989 
     18 CA         26.9159   26.8605    3.3825 C.3       5 UNK         0.0716 
     19 N          26.3935   26.1377    2.2167 N.am      5 UNK        -0.4135 
     20 C          25.1094   25.9955    1.8629 C.2       4 UNK         0.5031 
     21 O          24.1635   26.4785    2.4878 O.2       4 UNK        -0.5229 
     22 CA         24.8600   25.2030    0.5616 C.3       4 UNK         0.0329 
     23 CB         23.4073   25.3248    0.0555 C.3       4 UNK        -0.2001 
     24 N          25.8047   25.5412   -0.5143 N.am      4 UNK        -0.4303 
     25 C          26.0445   26.7662   -1.0135 C.2       3 UNK         0.5044 
     26 O          25.5033   27.7841   -0.5853 O.2       3 UNK        -0.5152 
     27 CA         27.0896   26.9158   -2.1356 C.3       3 UNK         0.0319 
     28 CB         28.2569   27.7973   -1.6636 C.3       3 UNK        -0.2001 
     29 N          27.6297   25.6407   -2.6051 N.am      3 UNK        -0.4354 
     30 C          27.0315   24.8267   -3.4857 C.2       2 UNK         0.4964 
     31 O          25.9787   25.0953   -4.0645 O.2       2 UNK        -0.5047 
     32 CA         27.7107   23.4678   -3.7410 C.3       2 UNK         0.0288 
     33 CB         28.5867   23.5321   -5.0027 C.3       2 UNK        -0.2113 
     34 N          28.5212   22.9912   -2.6125 N.am      2 UNK        -0.4145 
     35 C          28.0369   22.6930   -1.3983 C.2       1 UNK         0.5006 
     36 O          26.8437   22.7799   -1.0979 O.2       1 UNK        -0.5103 
     37 C          26.8450   28.3998    3.2585 C.2       5 UNK         0.5055 
     38 O          27.1434   29.0849    4.2383 O.2       5 UNK        -0.5220 
     39 N          26.5199   28.9419    2.0717 N.am      6 UNK        -0.4450 
     40 CA         26.5886   30.3839    1.7981 C.3       6 UNK         0.0367 
     41 CB         25.7364   30.7279    0.5669 C.3       6 UNK        -0.1929 
     42 C          28.0306   30.8909    1.6065 C.2       6 UNK         0.5070 
     43 O          28.2696   32.0906    1.7487 O.2       6 UNK        -0.5237 
     44 N          28.9739   29.9853    1.3060 N.am      7 UNK        -0.4739 
     45 CA         30.4031   30.2566    1.1128 C.3       7 UNK         0.0276 
     46 CB         31.0303   29.1039    0.3051 C.3       7 UNK        -0.1927 
     47 C          31.1499   30.5112    2.4377 C.2       7 UNK         0.5013 
     48 O          32.1765   29.8816    2.6969 O.2       7 UNK        -0.5193 
     49 N          30.6396   31.4484    3.2485 N.am      8 UNK        -0.4253 
     50 CA         31.1552   31.8266    4.5702 C.3       8 UNK         0.0242 
     51 CB         30.2716   32.9344    5.1632 C.3       8 UNK        -0.2000 
     52 C          32.6331   32.2536    4.5772 C.2       8 UNK         0.4948 
     53 O          33.3235   32.0177    5.5684 O.2       8 UNK        -0.5275 
     54 N          33.1096   32.8106    3.4549 N.am      9 UNK        -0.4246 
     55 CA         34.5097   33.1636    3.2075 C.3       9 UNK         0.0261 
     56 CB         34.6134   33.8856    1.8541 C.3       9 UNK        -0.1959 
     57 C          35.4862   31.9710    3.2556 C.2       9 UNK         0.5033 
     58 O          36.6705   32.1900    3.5139 O.2       9 UNK        -0.5390 
     59 N          34.9947   30.7424    3.0260 N.am      10 UNK        -0.4215 
     60 CA         35.7788   29.5131    3.1740 C.3       10 UNK         0.0240 
     61 CB         35.1037   28.3742    2.3926 C.3       10 UNK        -0.1982 
     62 C          35.9749   29.1103    4.6470 C.2       10 UNK         0.4970 
     63 O          36.9598   28.4366    4.9525 O.2       10 UNK        -0.4916 
     64 N          35.0467   29.5179    5.5219 N.am      11 UNK        -0.4279 
     65 CA         35.0946   29.2761    6.9697 C.3       11 UNK         0.1003 
     66 C          35.7690   30.4476    7.7301 C.2       11 UNK         0.5709 
     67 N          35.5177   31.6962    7.3562 N.am      11 UNK        -0.7358 
     68 O          36.5354   30.2202    8.6633 O.2       11 UNK        -0.4999 
     69 C69        33.6861   28.9819    7.5450 C.3       12 UNK        -0.0954 
     70 S70        32.9953   27.4215    6.9037 S.3       12 UNK        -0.2268 
     71 C71        31.7552   28.0314    5.7230 C.3       12 UNK         0.0203 
     72 H72        28.3120   18.4256    0.6334 H         1 UNK         0.0888 
     73 H73        28.1532   17.9351   -1.0543 H         1 UNK         0.0888 
     74 H74        29.7147   17.8059   -0.2398 H         1 UNK         0.0888 
     75 H75        28.3343   20.6538    0.8461 H         1 UNK         0.3017 
     76 H76        30.0623   22.3490   -0.7364 H         1 UNK         0.0873 
     77 H77        29.5521   22.6468    1.7306 H         1 UNK         0.0745 
     78 H78        27.9499   23.1896    1.3248 H         1 UNK         0.0745 
     79 H79        31.5247   23.8796    1.8729 H         1 UNK         0.0705 
     80 H80        31.7970   25.5300    1.3873 H         1 UNK         0.0705 
     81 H81        32.1207   26.9401    3.2454 H         1 UNK         0.1334 
     82 H82        29.7043   26.5952    6.7666 H         1 UNK         0.1417 
     83 H83        29.1808   23.8241    3.5543 H         1 UNK         0.1562 
     84 H84        27.9878   24.9570    6.9324 H         1 UNK         0.0748 
     85 H85        28.4052   23.4424    6.1661 H         1 UNK         0.0748 
     86 H86        26.8809   26.8676    5.5784 H         1 UNK         0.0940 
     87 H87        25.3239   26.5767    4.8633 H         1 UNK         0.0940 
     88 H88        27.9859   26.6643    3.3588 H         1 UNK         0.0703 
     89 H89        27.0933   25.7058    1.6300 H         1 UNK         0.3081 
     90 H90        25.0375   24.1545    0.8064 H         1 UNK         0.0719 
     91 H91        23.2505   24.7300   -0.8444 H         1 UNK         0.0809 
     92 H92        23.1453   26.3580   -0.1753 H         1 UNK         0.0809 
     93 H93        22.6997   24.9689    0.8054 H         1 UNK         0.0809 
     94 H94        26.2949   24.7491   -0.9166 H         1 UNK         0.2990 
     95 H95        26.5980   27.4206   -2.9699 H         1 UNK         0.0690 
     96 H96        28.9915   27.9398   -2.4563 H         1 UNK         0.0788 
     97 H97        28.7680   27.3601   -0.8057 H         1 UNK         0.0788 
     98 H98        27.9095   28.7881   -1.3684 H         1 UNK         0.0788 
     99 H99        28.4970   25.3368   -2.1863 H         1 UNK         0.2993 
    100 H100       26.9164   22.7372   -3.9101 H         1 UNK         0.0949 
    101 H101       28.0044   23.8579   -5.8661 H         1 UNK         0.0767 
    102 H102       29.4148   24.2323   -4.8849 H         1 UNK         0.0767 
    103 H103       29.0039   22.5547   -5.2466 H         1 UNK         0.0767 
    104 H104       29.5085   22.8641   -2.7863 H         1 UNK         0.3013 
    105 H105       26.2274   28.3470    1.3033 H         1 UNK         0.3121 
    106 H106       26.1659   30.9163    2.6530 H         1 UNK         0.0774 
    107 H107       25.6712   31.8082    0.4310 H         1 UNK         0.0815 
    108 H108       26.1603   30.3145   -0.3484 H         1 UNK         0.0815 
    109 H109       24.7183   30.3513    0.6670 H         1 UNK         0.0815 
    110 H110       28.6910   29.0193    1.2456 H         1 UNK         0.2987 
    111 H111       30.5039   31.1679    0.5193 H         1 UNK         0.0949 
    112 H112       30.9089   28.1432    0.8077 H         1 UNK         0.0806 
    113 H113       30.5874   29.0300   -0.6868 H         1 UNK         0.0806 
    114 H114       32.0998   29.2608    0.1574 H         1 UNK         0.0806 
    115 H115       29.7905   31.9100    2.9332 H         1 UNK         0.3010 
    116 H116       31.0731   30.9474    5.2108 H         1 UNK         0.0829 
    117 H117       29.2371   32.6049    5.2636 H         1 UNK         0.0813 
    118 H118       30.6173   33.2196    6.1580 H         1 UNK         0.0813 
    119 H119       30.2796   33.8324    4.5441 H         1 UNK         0.0813 
    120 H120       32.4635   32.9613    2.6941 H         1 UNK         0.3038 
    121 H121       34.8139   33.8594    3.9922 H         1 UNK         0.0769 
    122 H122       35.6412   34.1909    1.6523 H         1 UNK         0.0811 
    123 H123       34.0015   34.7877    1.8361 H         1 UNK         0.0811 
    124 H124       34.2962   33.2457    1.0296 H         1 UNK         0.0811 
    125 H125       34.0040   30.6247    2.8289 H         1 UNK         0.3204 
    126 H126       36.7675   29.6782    2.7403 H         1 UNK         0.0748 
    127 H127       35.7180   27.4730    2.4104 H         1 UNK         0.0771 
    128 H128       34.1351   28.1133    2.8183 H         1 UNK         0.0771 
    129 H129       34.9499   28.6429    1.3474 H         1 UNK         0.0771 
    130 H130       34.3087   30.1324    5.2062 H         1 UNK         0.2980 
    131 H131       35.7076   28.3928    7.1604 H         1 UNK         0.0545 
    132 H132       34.8184   31.8845    6.6422 H         1 UNK         0.3459 
    133 H133       35.9595   32.4584    7.8439 H         1 UNK         0.3459 
    134 H134       33.7312   28.8873    8.6316 H         1 UNK         0.0616 
    135 H135       33.0008   29.8066    7.3404 H         1 UNK         0.0616 
    136 H136       32.2532   28.6355    4.9653 H         1 UNK         0.0634 
    137 H137       31.0496   28.6856    6.2370 H         1 UNK         0.0634 
@<TRIPOS>BOND
     1    1    2 1    
     2    1   72 1    
     3    1   73 1    
     4    1   74 1    
     5    2    3 2    
     6    2    4 am   BACKBONE|DICT|INTERRES
     7    4    5 1    
     8    4   75 1    
     9    5    6 1    
    10    5   35 1    
    11    5   76 1    
    12    6    7 1    
    13    6   77 1    
    14    6   78 1    
    15    7    8 1    
    16    8    9 1    
    17    8   79 1    
    18    8   80 1    
    19    9   10 ar   
    20    9   14 ar   
    21   10   11 ar   
    22   10   81 1    
    23   11   12 ar   
    24   11   71 1    
    25   12   13 ar   
    26   12   82 1    
    27   13   14 ar   
    28   13   15 1    
    29   14   83 1    
    30   15   16 1    
    31   15   84 1    
    32   15   85 1    
    33   16   17 1    
    34   17   18 1    
    35   17   86 1    
    36   17   87 1    
    37   18   19 1    
    38   18   37 1    
    39   18   88 1    
    40   19   20 am   BACKBONE|DICT|INTERRES
    41   19   89 1    
    42   20   21 2    
    43   20   22 1    
    44   22   23 1    
    45   22   24 1    
    46   22   90 1    
    47   23   91 1    
    48   23   92 1    
    49   23   93 1    
    50   24   25 am   BACKBONE|DICT|INTERRES
    51   24   94 1    
    52   25   26 2    
    53   25   27 1    
    54   27   28 1    
    55   27   29 1    
    56   27   95 1    
    57   28   96 1    
    58   28   97 1    
    59   28   98 1    
    60   29   30 am   BACKBONE|DICT|INTERRES
    61   29   99 1    
    62   30   31 2    
    63   30   32 1    
    64   32   33 1    
    65   32   34 1    
    66   32  100 1    
    67   33  101 1    
    68   33  102 1    
    69   33  103 1    
    70   34   35 am   BACKBONE|DICT|INTERRES
    71   34  104 1    
    72   35   36 2    
    73   37   38 2    
    74   37   39 am   BACKBONE|DICT|INTERRES
    75   39   40 1    
    76   39  105 1    
    77   40   41 1    
    78   40   42 1    
    79   40  106 1    
    80   41  107 1    
    81   41  108 1    
    82   41  109 1    
    83   42   43 2    
    84   42   44 am   BACKBONE|DICT|INTERRES
    85   44   45 1    
    86   44  110 1    
    87   45   46 1    
    88   45   47 1    
    89   45  111 1    
    90   46  112 1    
    91   46  113 1    
    92   46  114 1    
    93   47   48 2    
    94   47   49 am   BACKBONE|DICT|INTERRES
    95   49   50 1    
    96   49  115 1    
    97   50   51 1    
    98   50   52 1    
    99   50  116 1    
   100   51  117 1    
   101   51  118 1    
   102   51  119 1    
   103   52   53 2    
   104   52   54 am   BACKBONE|DICT|INTERRES
   105   54   55 1    
   106   54  120 1    
   107   55   56 1    
   108   55   57 1    
   109   55  121 1    
   110   56  122 1    
   111   56  123 1    
   112   56  124 1    
   113   57   58 2    
   114   57   59 am   BACKBONE|DICT|INTERRES
   115   59   60 1    
   116   59  125 1    
   117   60   61 1    
   118   60   62 1    
   119   60  126 1    
   120   61  127 1    
   121   61  128 1    
   122   61  129 1    
   123   62   63 2    
   124   62   64 am   BACKBONE|DICT|INTERRES
   125   64   65 1    
   126   64  130 1    
   127   65   66 1    
   128   65   69 1    
   129   65  131 1    
   130   66   67 am   BACKBONE|DICT|INTERRES
   131   66   68 2    
   132   67  132 1    
   133   67  133 1    
   134   69   70 1    
   135   69  134 1    
   136   69  135 1    
   137   70   71 1    
   138   71  136 1    
   139   71  137 1    
@<TRIPOS>SUBSTRUCTURE
     1 UNK         1 GROUP             0       ****    0 ROOT    
