@<TRIPOS>MOLECULE
3R136
137   139    1
SMALL
USER_CHARGES


@<TRIPOS>ATOM
      1 CA         35.3239   27.0912   -1.6876 C.3       0 UNK        -0.1979 
      2 C          33.8803   27.0231   -1.2171 C.2       0 UNK         0.4864 
      3 O          33.2826   28.0601   -0.9186 O.2       0 UNK        -0.5359 
      4 N          33.3048   25.8134   -1.1542 N.am      1 UNK        -0.4318 
      5 CA         31.9050   25.5640   -0.7848 C.3       1 UNK         0.0824 
      6 C6         31.7182   24.1759   -0.1126 C.3       12 UNK        -0.0944 
      7 S7         30.3628   24.2081    1.1102 S.3       12 UNK        -0.2672 
      8 C8         30.8188   22.8263    2.2030 C.3       12 UNK         0.0333 
      9 C9         30.1793   22.9899    3.5734 C.ar      12 UNK        -0.0807 
     10 C10        30.8402   23.7241    4.5609 C.ar      12 UNK        -0.0894 
     11 C11        30.2702   23.9128    5.8273 C.ar      12 UNK        -0.0804 
     12 C12        29.0236   23.3364    6.0915 C.ar      12 UNK        -0.0824 
     13 C13        28.3494   22.5977    5.1129 C.ar      12 UNK        -0.0762 
     14 C14        28.9335   22.4245    3.8547 C.ar      12 UNK        -0.0782 
     15 C15        26.9796   22.0033    5.4081 C.3       12 UNK         0.0230 
     16 S16        25.6400   22.9821    4.6541 S.3       12 UNK        -0.2608 
     17 C17        25.8368   24.5906    5.4947 C.3       12 UNK        -0.0989 
     18 CA         26.5572   25.6307    4.5995 C.3       5 UNK         0.0716 
     19 N          25.7783   25.9273    3.3930 N.am      5 UNK        -0.4135 
     20 C          26.0448   26.8481    2.4574 C.2       4 UNK         0.5031 
     21 O          26.9936   27.6371    2.5038 O.2       4 UNK        -0.5229 
     22 CA         25.0433   26.9014    1.2876 C.3       4 UNK         0.0329 
     23 CB         23.7318   27.5767    1.7261 C.3       4 UNK        -0.2001 
     24 N          25.5636   27.6050    0.1131 N.am      4 UNK        -0.4303 
     25 C          26.6015   27.2050   -0.6327 C.2       3 UNK         0.5044 
     26 O          27.2162   26.1516   -0.4489 O.2       3 UNK        -0.5152 
     27 CA         27.0098   28.1329   -1.7880 C.3       3 UNK         0.0319 
     28 CB         26.9365   29.6291   -1.4149 C.3       3 UNK        -0.2001 
     29 N          28.3637   27.7912   -2.2195 N.am      3 UNK        -0.4354 
     30 C          28.8419   27.9113   -3.4627 C.2       2 UNK         0.4964 
     31 O          28.1755   28.3472   -4.4029 O.2       2 UNK        -0.5047 
     32 CA         30.3085   27.5055   -3.7170 C.3       2 UNK         0.0288 
     33 CB         31.1010   28.6785   -4.3221 C.3       2 UNK        -0.2113 
     34 N          31.0251   27.0421   -2.5256 N.am      2 UNK        -0.4145 
     35 C          30.9730   25.8129   -1.9965 C.2       1 UNK         0.5006 
     36 O          30.2706   24.9100   -2.4537 O.2       1 UNK        -0.5103 
     37 C          26.8966   26.8996    5.4067 C.2       5 UNK         0.5055 
     38 O          25.9944   27.5190    5.9737 O.2       5 UNK        -0.5220 
     39 N          28.1883   27.2597    5.4087 N.am      6 UNK        -0.4450 
     40 CA         28.8005   28.4300    6.0527 C.3       6 UNK         0.0367 
     41 CB         28.6027   28.3900    7.5828 C.3       6 UNK        -0.1929 
     42 C          28.4052   29.7975    5.4525 C.2       6 UNK         0.5070 
     43 O          28.8140   30.8237    5.9973 O.2       6 UNK        -0.5237 
     44 N          27.6598   29.8109    4.3388 N.am      7 UNK        -0.4739 
     45 CA         27.3220   31.0166    3.5725 C.3       7 UNK         0.0276 
     46 CB         25.8723   30.8966    3.0742 C.3       7 UNK        -0.1927 
     47 C          28.2759   31.2222    2.3814 C.2       7 UNK         0.5013 
     48 O          28.2667   32.2953    1.7764 O.2       7 UNK        -0.5193 
     49 N          29.0527   30.1840    2.0507 N.am      8 UNK        -0.4253 
     50 CA         30.0221   30.1379    0.9602 C.3       8 UNK         0.0242 
     51 CB         30.2855   28.6592    0.6435 C.3       8 UNK        -0.2000 
     52 C          31.3296   30.8882    1.2805 C.2       8 UNK         0.4948 
     53 O          31.4826   31.4486    2.3687 O.2       8 UNK        -0.5275 
     54 N          32.2537   30.8879    0.3077 N.am      9 UNK        -0.4246 
     55 CA         33.5721   31.5214    0.4038 C.3       9 UNK         0.0261 
     56 CB         34.2406   31.5357   -0.9810 C.3       9 UNK        -0.1959 
     57 C          34.4854   30.8505    1.4435 C.2       9 UNK         0.5033 
     58 O          35.1757   31.5556    2.1817 O.2       9 UNK        -0.5390 
     59 N          34.4566   29.5133    1.4957 N.am      10 UNK        -0.4215 
     60 CA         35.0836   28.7155    2.5497 C.3       10 UNK         0.0240 
     61 CB         35.7120   27.4561    1.9306 C.3       10 UNK        -0.1982 
     62 C          34.0317   28.3190    3.5943 C.2       10 UNK         0.4970 
     63 O          32.8399   28.2821    3.2818 O.2       10 UNK        -0.4916 
     64 N          34.5041   27.9762    4.7999 N.am      11 UNK        -0.4279 
     65 CA         33.7013   27.4443    5.9170 C.3       11 UNK         0.1003 
     66 C          32.8008   28.4891    6.6460 C.2       11 UNK         0.5709 
     67 N          32.8687   29.7729    6.3158 N.am      11 UNK        -0.7358 
     68 O          32.0542   28.1399    7.5557 O.2       11 UNK        -0.4999 
     69 C69        32.9351   26.1549    5.5002 C.3       12 UNK        -0.0954 
     70 S70        32.7511   24.9135    6.8236 S.3       12 UNK        -0.2268 
     71 C71        30.9331   24.7551    6.9242 C.3       12 UNK         0.0203 
     72 H72        35.8610   26.1689   -1.4675 H         1 UNK         0.0888 
     73 H73        35.3585   27.2651   -2.7625 H         1 UNK         0.0888 
     74 H74        35.8443   27.9122   -1.1958 H         1 UNK         0.0888 
     75 H75        33.8326   25.0010   -1.4413 H         1 UNK         0.3017 
     76 H76        31.6443   26.3118   -0.0346 H         1 UNK         0.0873 
     77 H77        31.5524   23.3761   -0.8367 H         1 UNK         0.0745 
     78 H78        32.6311   23.9066    0.4209 H         1 UNK         0.0745 
     79 H79        30.5113   21.8854    1.7442 H         1 UNK         0.0705 
     80 H80        31.9031   22.7756    2.3131 H         1 UNK         0.0705 
     81 H81        31.7994   24.1494    4.3161 H         1 UNK         0.1334 
     82 H82        28.5681   23.4758    7.0627 H         1 UNK         0.1417 
     83 H83        28.4103   21.8646    3.0911 H         1 UNK         0.1562 
     84 H84        26.8120   21.9273    6.4837 H         1 UNK         0.0748 
     85 H85        26.9340   20.9842    5.0211 H         1 UNK         0.0748 
     86 H86        26.3719   24.4416    6.4341 H         1 UNK         0.0940 
     87 H87        24.8460   24.9525    5.7771 H         1 UNK         0.0940 
     88 H88        27.4951   25.1907    4.2550 H         1 UNK         0.0703 
     89 H89        24.9678   25.3404    3.2621 H         1 UNK         0.3081 
     90 H90        24.8242   25.8749    0.9857 H         1 UNK         0.0719 
     91 H91        23.8898   28.6112    2.0316 H         1 UNK         0.0809 
     92 H92        22.9962   27.5743    0.9214 H         1 UNK         0.0809 
     93 H93        23.2802   27.0560    2.5714 H         1 UNK         0.0809 
     94 H94        25.1367   28.4934   -0.1016 H         1 UNK         0.2990 
     95 H95        26.3164   27.9379   -2.6088 H         1 UNK         0.0690 
     96 H96        27.3895   30.2570   -2.1823 H         1 UNK         0.0788 
     97 H97        27.4445   29.8337   -0.4730 H         1 UNK         0.0788 
     98 H98        25.9037   29.9613   -1.3073 H         1 UNK         0.0788 
     99 H99        28.9227   27.3162   -1.5245 H         1 UNK         0.2993 
    100 H100       30.2895   26.6936   -4.4474 H         1 UNK         0.0949 
    101 H101       32.1254   28.3870   -4.5554 H         1 UNK         0.0767 
    102 H102       30.6471   29.0238   -5.2521 H         1 UNK         0.0767 
    103 H103       31.1410   29.5307   -3.6423 H         1 UNK         0.0767 
    104 H104       31.6765   27.6956   -2.1028 H         1 UNK         0.3013 
    105 H105       28.8261   26.6936    4.8657 H         1 UNK         0.3121 
    106 H106       29.8697   28.3334    5.8623 H         1 UNK         0.0774 
    107 H107       29.2016   29.1590    8.0722 H         1 UNK         0.0815 
    108 H108       27.5635   28.5612    7.8643 H         1 UNK         0.0815 
    109 H109       28.9131   27.4322    7.9996 H         1 UNK         0.0815 
    110 H110       27.3666   28.9276    3.9292 H         1 UNK         0.2987 
    111 H111       27.3929   31.9008    4.2098 H         1 UNK         0.0949 
    112 H112       25.7620   30.0832    2.3571 H         1 UNK         0.0806 
    113 H113       25.1805   30.7176    3.8975 H         1 UNK         0.0806 
    114 H114       25.5550   31.8133    2.5755 H         1 UNK         0.0806 
    115 H115       28.9768   29.3523    2.6171 H         1 UNK         0.3010 
    116 H116       29.5767   30.6141    0.0847 H         1 UNK         0.0829 
    117 H117       29.3578   28.0954    0.5453 H         1 UNK         0.0813 
    118 H118       30.8229   28.5643   -0.2956 H         1 UNK         0.0813 
    119 H119       30.8825   28.1800    1.4208 H         1 UNK         0.0813 
    120 H120       32.0712   30.3695   -0.5396 H         1 UNK         0.3038 
    121 H121       33.4202   32.5563    0.7179 H         1 UNK         0.0769 
    122 H122       33.6386   32.0822   -1.7072 H         1 UNK         0.0811 
    123 H123       34.3989   30.5278   -1.3667 H         1 UNK         0.0811 
    124 H124       35.2152   32.0238   -0.9373 H         1 UNK         0.0811 
    125 H125       33.8356   29.0208    0.8615 H         1 UNK         0.3204 
    126 H126       35.8711   29.2897    3.0426 H         1 UNK         0.0748 
    127 H127       36.4367   27.7132    1.1585 H         1 UNK         0.0771 
    128 H128       36.2418   26.8721    2.6842 H         1 UNK         0.0771 
    129 H129       34.9587   26.8029    1.4895 H         1 UNK         0.0771 
    130 H130       35.4959   28.0500    4.9761 H         1 UNK         0.2980 
    131 H131       34.4455   27.1586    6.6611 H         1 UNK         0.0545 
    132 H132       33.4698   30.0785    5.5682 H         1 UNK         0.3459 
    133 H133       32.2883   30.4368    6.8028 H         1 UNK         0.3459 
    134 H134       33.4801   25.6481    4.7022 H         1 UNK         0.0616 
    135 H135       31.9620   26.4086    5.0755 H         1 UNK         0.0616 
    136 H136       30.4878   25.7505    6.9276 H         1 UNK         0.0634 
    137 H137       30.7038   24.3167    7.8966 H         1 UNK         0.0634 
@<TRIPOS>BOND
     1    1    2 1    
     2    1   72 1    
     3    1   73 1    
     4    1   74 1    
     5    2    3 2    
     6    2    4 am   BACKBONE|DICT|INTERRES
     7    4    5 1    
     8    4   75 1    
     9    5    6 1    
    10    5   35 1    
    11    5   76 1    
    12    6    7 1    
    13    6   77 1    
    14    6   78 1    
    15    7    8 1    
    16    8    9 1    
    17    8   79 1    
    18    8   80 1    
    19    9   10 ar   
    20    9   14 ar   
    21   10   11 ar   
    22   10   81 1    
    23   11   12 ar   
    24   11   71 1    
    25   12   13 ar   
    26   12   82 1    
    27   13   14 ar   
    28   13   15 1    
    29   14   83 1    
    30   15   16 1    
    31   15   84 1    
    32   15   85 1    
    33   16   17 1    
    34   17   18 1    
    35   17   86 1    
    36   17   87 1    
    37   18   19 1    
    38   18   37 1    
    39   18   88 1    
    40   19   20 am   BACKBONE|DICT|INTERRES
    41   19   89 1    
    42   20   21 2    
    43   20   22 1    
    44   22   23 1    
    45   22   24 1    
    46   22   90 1    
    47   23   91 1    
    48   23   92 1    
    49   23   93 1    
    50   24   25 am   BACKBONE|DICT|INTERRES
    51   24   94 1    
    52   25   26 2    
    53   25   27 1    
    54   27   28 1    
    55   27   29 1    
    56   27   95 1    
    57   28   96 1    
    58   28   97 1    
    59   28   98 1    
    60   29   30 am   BACKBONE|DICT|INTERRES
    61   29   99 1    
    62   30   31 2    
    63   30   32 1    
    64   32   33 1    
    65   32   34 1    
    66   32  100 1    
    67   33  101 1    
    68   33  102 1    
    69   33  103 1    
    70   34   35 am   BACKBONE|DICT|INTERRES
    71   34  104 1    
    72   35   36 2    
    73   37   38 2    
    74   37   39 am   BACKBONE|DICT|INTERRES
    75   39   40 1    
    76   39  105 1    
    77   40   41 1    
    78   40   42 1    
    79   40  106 1    
    80   41  107 1    
    81   41  108 1    
    82   41  109 1    
    83   42   43 2    
    84   42   44 am   BACKBONE|DICT|INTERRES
    85   44   45 1    
    86   44  110 1    
    87   45   46 1    
    88   45   47 1    
    89   45  111 1    
    90   46  112 1    
    91   46  113 1    
    92   46  114 1    
    93   47   48 2    
    94   47   49 am   BACKBONE|DICT|INTERRES
    95   49   50 1    
    96   49  115 1    
    97   50   51 1    
    98   50   52 1    
    99   50  116 1    
   100   51  117 1    
   101   51  118 1    
   102   51  119 1    
   103   52   53 2    
   104   52   54 am   BACKBONE|DICT|INTERRES
   105   54   55 1    
   106   54  120 1    
   107   55   56 1    
   108   55   57 1    
   109   55  121 1    
   110   56  122 1    
   111   56  123 1    
   112   56  124 1    
   113   57   58 2    
   114   57   59 am   BACKBONE|DICT|INTERRES
   115   59   60 1    
   116   59  125 1    
   117   60   61 1    
   118   60   62 1    
   119   60  126 1    
   120   61  127 1    
   121   61  128 1    
   122   61  129 1    
   123   62   63 2    
   124   62   64 am   BACKBONE|DICT|INTERRES
   125   64   65 1    
   126   64  130 1    
   127   65   66 1    
   128   65   69 1    
   129   65  131 1    
   130   66   67 am   BACKBONE|DICT|INTERRES
   131   66   68 2    
   132   67  132 1    
   133   67  133 1    
   134   69   70 1    
   135   69  134 1    
   136   69  135 1    
   137   70   71 1    
   138   71  136 1    
   139   71  137 1    
@<TRIPOS>SUBSTRUCTURE
     1 UNK         1 GROUP             0       ****    0 ROOT    
