@<TRIPOS>MOLECULE
3R136
137   139    1
SMALL
USER_CHARGES


@<TRIPOS>ATOM
      1 CA         26.2609   22.8641   -3.8931 C.3       0 UNK        -0.1979 
      2 C          27.1427   23.4528   -2.8034 C.2       0 UNK         0.4864 
      3 O          26.8400   24.5301   -2.2913 O.2       0 UNK        -0.5359 
      4 N          28.2201   22.7478   -2.4286 N.am      1 UNK        -0.4318 
      5 CA         29.2135   23.1549   -1.4225 C.3       1 UNK         0.0824 
      6 C6         30.3233   22.0815   -1.2806 C.3       12 UNK        -0.0944 
      7 S7         31.9146   22.7606   -0.7013 S.3       12 UNK        -0.2672 
      8 C8         32.2418   21.7986    0.8127 C.3       12 UNK         0.0333 
      9 C9         32.2572   22.6959    2.0394 C.ar      12 UNK        -0.0807 
     10 C10        33.4293   23.3741    2.3916 C.ar      12 UNK        -0.0894 
     11 C11        33.4511   24.2179    3.5054 C.ar      12 UNK        -0.0804 
     12 C12        32.3002   24.3605    4.2827 C.ar      12 UNK        -0.0824 
     13 C13        31.1146   23.7146    3.9213 C.ar      12 UNK        -0.0762 
     14 C14        31.1005   22.8698    2.8069 C.ar      12 UNK        -0.0782 
     15 C15        29.8350   24.0091    4.6905 C.3       12 UNK         0.0230 
     16 S16        28.8003   25.2549    3.8449 S.3       12 UNK        -0.2608 
     17 C17        30.0297   26.5149    3.3531 C.3       12 UNK        -0.0989 
     18 CA         29.4628   27.7553    2.6309 C.3       5 UNK         0.0716 
     19 N          28.7863   27.4371    1.3706 N.am      5 UNK        -0.4135 
     20 C          28.4749   28.3622    0.4510 C.2       4 UNK         0.5031 
     21 O          28.7484   29.5582    0.5709 O.2       4 UNK        -0.5229 
     22 CA         27.7562   27.8940   -0.8235 C.3       4 UNK         0.0329 
     23 CB         28.7758   27.4123   -1.8674 C.3       4 UNK        -0.2001 
     24 N          26.7688   26.8423   -0.5848 N.am      4 UNK        -0.4303 
     25 C          25.6143   27.0054    0.0776 C.2       3 UNK         0.5044 
     26 O          25.2365   28.0792    0.5464 O.2       3 UNK        -0.5152 
     27 CA         24.7215   25.7638    0.2326 C.3       3 UNK         0.0319 
     28 CB         23.8001   25.6004   -0.9877 C.3       3 UNK        -0.2001 
     29 N          25.5254   24.5522    0.4059 N.am      3 UNK        -0.4354 
     30 C          25.8848   24.0518    1.5968 C.2       2 UNK         0.4964 
     31 O          25.4711   24.4903    2.6703 O.2       2 UNK        -0.5047 
     32 CA         26.8512   22.8499    1.6128 C.3       2 UNK         0.0288 
     33 CB         26.0859   21.5487    1.9048 C.3       2 UNK        -0.2113 
     34 N          27.6289   22.6755    0.3835 N.am      2 UNK        -0.4145 
     35 C          28.5802   23.5115   -0.0595 C.2       1 UNK         0.5006 
     36 O          28.9067   24.5498    0.5159 O.2       1 UNK        -0.5103 
     37 C          28.6062   28.6468    3.5519 C.2       5 UNK         0.5055 
     38 O          27.3756   28.5715    3.5314 O.2       5 UNK        -0.5220 
     39 N          29.2922   29.5229    4.2955 N.am      6 UNK        -0.4450 
     40 CA         28.7964   30.6306    5.1224 C.3       6 UNK         0.0367 
     41 CB         27.7790   30.1668    6.1825 C.3       6 UNK        -0.1929 
     42 C          28.2644   31.8178    4.2987 C.2       6 UNK         0.5070 
     43 O          28.4703   32.9602    4.7079 O.2       6 UNK        -0.5237 
     44 N          27.6235   31.5488    3.1532 N.am      7 UNK        -0.4739 
     45 CA         27.1738   32.5544    2.1908 C.3       7 UNK         0.0276 
     46 CB         26.1453   31.9347    1.2295 C.3       7 UNK        -0.1927 
     47 C          28.3533   33.1802    1.4285 C.2       7 UNK         0.5013 
     48 O          28.4845   34.4049    1.4233 O.2       7 UNK        -0.5193 
     49 N          29.1924   32.3354    0.8117 N.am      8 UNK        -0.4253 
     50 CA         30.4024   32.7538    0.1000 C.3       8 UNK         0.0242 
     51 CB         30.7862   31.6930   -0.9462 C.3       8 UNK        -0.2000 
     52 C          31.5646   33.0162    1.0696 C.2       8 UNK         0.4948 
     53 O          32.1839   34.0788    1.0044 O.2       8 UNK        -0.5275 
     54 N          31.8292   32.0477    1.9532 N.am      9 UNK        -0.4246 
     55 CA         32.8633   32.0707    2.9842 C.3       9 UNK         0.0261 
     56 CB         34.2570   31.8693    2.3583 C.3       9 UNK        -0.1959 
     57 C          32.5565   30.9458    3.9759 C.2       9 UNK         0.5033 
     58 O          31.9196   29.9618    3.5916 O.2       9 UNK        -0.5390 
     59 N          33.0030   31.0964    5.2282 N.am      10 UNK        -0.4215 
     60 CA         32.8191   30.0898    6.2796 C.3       10 UNK         0.0240 
     61 CB         33.0557   30.7308    7.6569 C.3       10 UNK        -0.1982 
     62 C          33.7172   28.8543    6.0915 C.2       10 UNK         0.4970 
     63 O          33.2609   27.7431    6.3597 O.2       10 UNK        -0.4916 
     64 N          34.9636   29.0887    5.6487 N.am      11 UNK        -0.4279 
     65 CA         36.0371   28.1112    5.3705 C.3       11 UNK         0.1003 
     66 C          36.3679   27.0687    6.4855 C.2       11 UNK         0.5709 
     67 N          36.0020   27.3044    7.7393 N.am      11 UNK        -0.7358 
     68 O          37.0139   26.0556    6.2277 O.2       11 UNK        -0.4999 
     69 C69        36.0066   27.5335    3.9203 C.3       12 UNK        -0.0954 
     70 S70        34.4437   26.7693    3.3774 S.3       12 UNK        -0.2268 
     71 C71        34.6904   25.0286    3.8450 C.3       12 UNK         0.0203 
     72 H72        26.2218   23.5402   -4.7466 H         1 UNK         0.0888 
     73 H73        26.6290   21.8989   -4.2403 H         1 UNK         0.0888 
     74 H74        25.2463   22.7275   -3.5202 H         1 UNK         0.0888 
     75 H75        28.4049   21.8680   -2.8895 H         1 UNK         0.3017 
     76 H76        29.6680   24.0693   -1.8097 H         1 UNK         0.0873 
     77 H77        29.9926   21.2504   -0.6559 H         1 UNK         0.0745 
     78 H78        30.5345   21.6388   -2.2556 H         1 UNK         0.0745 
     79 H79        33.2092   21.3050    0.7079 H         1 UNK         0.0705 
     80 H80        31.5139   20.9973    0.9423 H         1 UNK         0.0705 
     81 H81        34.3156   23.2656    1.7812 H         1 UNK         0.1334 
     82 H82        32.3122   25.0356    5.1285 H         1 UNK         0.1417 
     83 H83        30.1806   22.3814    2.5161 H         1 UNK         0.1562 
     84 H84        30.0684   24.3660    5.6949 H         1 UNK         0.0748 
     85 H85        29.2578   23.0923    4.8177 H         1 UNK         0.0748 
     86 H86        30.7486   26.0445    2.6805 H         1 UNK         0.0940 
     87 H87        30.6008   26.8165    4.2337 H         1 UNK         0.0940 
     88 H88        30.3305   28.3508    2.3404 H         1 UNK         0.0703 
     89 H89        28.5657   26.4606    1.2030 H         1 UNK         0.3081 
     90 H90        27.2289   28.7560   -1.2377 H         1 UNK         0.0719 
     91 H91        29.3361   26.5467   -1.5126 H         1 UNK         0.0809 
     92 H92        28.2870   27.1346   -2.8015 H         1 UNK         0.0809 
     93 H93        29.4977   28.1972   -2.0980 H         1 UNK         0.0809 
     94 H94        26.9544   25.9402   -1.0146 H         1 UNK         0.2990 
     95 H95        24.0871   25.9172    1.1083 H         1 UNK         0.0690 
     96 H96        23.1394   24.7411   -0.8724 H         1 UNK         0.0788 
     97 H97        24.3642   25.4678   -1.9114 H         1 UNK         0.0788 
     98 H98        23.1682   26.4801   -1.1169 H         1 UNK         0.0788 
     99 H99        25.9317   24.1616   -0.4357 H         1 UNK         0.2993 
    100 H100       27.5568   23.0176    2.4280 H         1 UNK         0.0949 
    101 H101       25.5230   21.6275    2.8361 H         1 UNK         0.0767 
    102 H102       25.3740   21.3126    1.1128 H         1 UNK         0.0767 
    103 H103       26.7657   20.7030    2.0115 H         1 UNK         0.0767 
    104 H104       27.4081   21.8659   -0.1781 H         1 UNK         0.3013 
    105 H105       30.3029   29.5415    4.1467 H         1 UNK         0.3121 
    106 H106       29.6721   31.0002    5.6581 H         1 UNK         0.0774 
    107 H107       27.5451   30.9786    6.8724 H         1 UNK         0.0815 
    108 H108       26.8376   29.8455    5.7364 H         1 UNK         0.0815 
    109 H109       28.1712   29.3399    6.7743 H         1 UNK         0.0815 
    110 H110       27.4719   30.5751    2.9130 H         1 UNK         0.2987 
    111 H111       26.6754   33.3546    2.7427 H         1 UNK         0.0949 
    112 H112       25.7993   32.6702    0.5022 H         1 UNK         0.0806 
    113 H113       26.5572   31.0934    0.6717 H         1 UNK         0.0806 
    114 H114       25.2684   31.5753    1.7682 H         1 UNK         0.0806 
    115 H115       28.9937   31.3353    0.8321 H         1 UNK         0.3010 
    116 H116       30.1926   33.6845   -0.4321 H         1 UNK         0.0829 
    117 H117       29.9807   31.5368   -1.6639 H         1 UNK         0.0813 
    118 H118       31.6677   32.0026   -1.5092 H         1 UNK         0.0813 
    119 H119       31.0135   30.7295   -0.4883 H         1 UNK         0.0813 
    120 H120       31.2689   31.2042    1.9567 H         1 UNK         0.3038 
    121 H121       32.8216   33.0287    3.5067 H         1 UNK         0.0769 
    122 H122       34.3214   30.9221    1.8208 H         1 UNK         0.0811 
    123 H123       35.0351   31.8643    3.1224 H         1 UNK         0.0811 
    124 H124       34.5019   32.6677    1.6579 H         1 UNK         0.0811 
    125 H125       33.5055   31.9373    5.4760 H         1 UNK         0.3204 
    126 H126       31.7832   29.7451    6.2475 H         1 UNK         0.0748 
    127 H127       32.9047   30.0036    8.4562 H         1 UNK         0.0771 
    128 H128       34.0696   31.1202    7.7572 H         1 UNK         0.0771 
    129 H129       32.3614   31.5522    7.8352 H         1 UNK         0.0771 
    130 H130       35.2203   30.0503    5.4866 H         1 UNK         0.2980 
    131 H131       36.9334   28.7321    5.3928 H         1 UNK         0.0545 
    132 H132       35.4691   28.1264    7.9709 H         1 UNK         0.3459 
    133 H133       36.2359   26.6343    8.4545 H         1 UNK         0.3459 
    134 H134       36.8263   26.8327    3.7536 H         1 UNK         0.0616 
    135 H135       36.1962   28.3517    3.2240 H         1 UNK         0.0616 
    136 H136       34.8851   24.9592    4.9154 H         1 UNK         0.0634 
    137 H137       35.5696   24.6324    3.3348 H         1 UNK         0.0634 
@<TRIPOS>BOND
     1    1    2 1    
     2    1   72 1    
     3    1   73 1    
     4    1   74 1    
     5    2    3 2    
     6    2    4 am   BACKBONE|DICT|INTERRES
     7    4    5 1    
     8    4   75 1    
     9    5    6 1    
    10    5   35 1    
    11    5   76 1    
    12    6    7 1    
    13    6   77 1    
    14    6   78 1    
    15    7    8 1    
    16    8    9 1    
    17    8   79 1    
    18    8   80 1    
    19    9   10 ar   
    20    9   14 ar   
    21   10   11 ar   
    22   10   81 1    
    23   11   12 ar   
    24   11   71 1    
    25   12   13 ar   
    26   12   82 1    
    27   13   14 ar   
    28   13   15 1    
    29   14   83 1    
    30   15   16 1    
    31   15   84 1    
    32   15   85 1    
    33   16   17 1    
    34   17   18 1    
    35   17   86 1    
    36   17   87 1    
    37   18   19 1    
    38   18   37 1    
    39   18   88 1    
    40   19   20 am   BACKBONE|DICT|INTERRES
    41   19   89 1    
    42   20   21 2    
    43   20   22 1    
    44   22   23 1    
    45   22   24 1    
    46   22   90 1    
    47   23   91 1    
    48   23   92 1    
    49   23   93 1    
    50   24   25 am   BACKBONE|DICT|INTERRES
    51   24   94 1    
    52   25   26 2    
    53   25   27 1    
    54   27   28 1    
    55   27   29 1    
    56   27   95 1    
    57   28   96 1    
    58   28   97 1    
    59   28   98 1    
    60   29   30 am   BACKBONE|DICT|INTERRES
    61   29   99 1    
    62   30   31 2    
    63   30   32 1    
    64   32   33 1    
    65   32   34 1    
    66   32  100 1    
    67   33  101 1    
    68   33  102 1    
    69   33  103 1    
    70   34   35 am   BACKBONE|DICT|INTERRES
    71   34  104 1    
    72   35   36 2    
    73   37   38 2    
    74   37   39 am   BACKBONE|DICT|INTERRES
    75   39   40 1    
    76   39  105 1    
    77   40   41 1    
    78   40   42 1    
    79   40  106 1    
    80   41  107 1    
    81   41  108 1    
    82   41  109 1    
    83   42   43 2    
    84   42   44 am   BACKBONE|DICT|INTERRES
    85   44   45 1    
    86   44  110 1    
    87   45   46 1    
    88   45   47 1    
    89   45  111 1    
    90   46  112 1    
    91   46  113 1    
    92   46  114 1    
    93   47   48 2    
    94   47   49 am   BACKBONE|DICT|INTERRES
    95   49   50 1    
    96   49  115 1    
    97   50   51 1    
    98   50   52 1    
    99   50  116 1    
   100   51  117 1    
   101   51  118 1    
   102   51  119 1    
   103   52   53 2    
   104   52   54 am   BACKBONE|DICT|INTERRES
   105   54   55 1    
   106   54  120 1    
   107   55   56 1    
   108   55   57 1    
   109   55  121 1    
   110   56  122 1    
   111   56  123 1    
   112   56  124 1    
   113   57   58 2    
   114   57   59 am   BACKBONE|DICT|INTERRES
   115   59   60 1    
   116   59  125 1    
   117   60   61 1    
   118   60   62 1    
   119   60  126 1    
   120   61  127 1    
   121   61  128 1    
   122   61  129 1    
   123   62   63 2    
   124   62   64 am   BACKBONE|DICT|INTERRES
   125   64   65 1    
   126   64  130 1    
   127   65   66 1    
   128   65   69 1    
   129   65  131 1    
   130   66   67 am   BACKBONE|DICT|INTERRES
   131   66   68 2    
   132   67  132 1    
   133   67  133 1    
   134   69   70 1    
   135   69  134 1    
   136   69  135 1    
   137   70   71 1    
   138   71  136 1    
   139   71  137 1    
@<TRIPOS>SUBSTRUCTURE
     1 UNK         1 GROUP             0       ****    0 ROOT    
