@<TRIPOS>MOLECULE
3R136
137   139    1
SMALL
USER_CHARGES


@<TRIPOS>ATOM
      1 CA         29.7157   22.9626   -5.0900 C.3       0 UNK        -0.1979 
      2 C          29.1167   22.9446   -3.6912 C.2       0 UNK         0.4864 
      3 O          28.6209   21.9039   -3.2577 O.2       0 UNK        -0.5359 
      4 N          29.1590   24.0907   -2.9946 N.am      1 UNK        -0.4318 
      5 CA         28.6655   24.3065   -1.6239 C.3       1 UNK         0.0824 
      6 C6         29.4704   23.5352   -0.5393 C.3       12 UNK        -0.0944 
      7 S7         31.2518   23.9175   -0.6093 S.3       12 UNK        -0.2672 
      8 C8         31.9080   22.8818    0.7400 C.3       12 UNK         0.0333 
      9 C9         32.1210   23.6472    2.0429 C.ar      12 UNK        -0.0807 
     10 C10        32.8631   24.8336    2.0527 C.ar      12 UNK        -0.0894 
     11 C11        33.1423   25.4923    3.2531 C.ar      12 UNK        -0.0804 
     12 C12        32.6758   24.9556    4.4561 C.ar      12 UNK        -0.0824 
     13 C13        31.9296   23.7732    4.4637 C.ar      12 UNK        -0.0762 
     14 C14        31.6514   23.1261    3.2541 C.ar      12 UNK        -0.0782 
     15 C15        31.4604   23.1755    5.7839 C.3       12 UNK         0.0230 
     16 S16        29.6622   23.3317    6.0200 S.3       12 UNK        -0.2608 
     17 C17        29.4432   25.1423    6.1244 C.3       12 UNK        -0.0989 
     18 CA         28.9982   25.7561    4.7721 C.3       5 UNK         0.0716 
     19 N          27.7837   25.1173    4.2507 N.am      5 UNK        -0.4135 
     20 C          27.4054   25.1007    2.9677 C.2       4 UNK         0.5031 
     21 O          28.0495   25.6496    2.0682 O.2       4 UNK        -0.5229 
     22 CA         26.0959   24.3721    2.6158 C.3       4 UNK         0.0329 
     23 CB         25.1796   24.0604    3.8221 C.3       4 UNK        -0.2001 
     24 N          25.3872   25.1015    1.5605 N.am      4 UNK        -0.4303 
     25 C          24.8324   26.3221    1.6431 C.2       3 UNK         0.5044 
     26 O          24.6792   26.9305    2.7029 O.2       3 UNK        -0.5152 
     27 CA         24.4101   27.0113    0.3270 C.3       3 UNK         0.0319 
     28 CB         24.9747   28.4426    0.2554 C.3       3 UNK        -0.2001 
     29 N          24.8455   26.2851   -0.8688 N.am      3 UNK        -0.4354 
     30 C          24.1977   25.2601   -1.4391 C.2       2 UNK         0.4964 
     31 O          23.0936   24.8576   -1.0732 O.2       2 UNK        -0.5047 
     32 CA         24.9269   24.5357   -2.5870 C.3       2 UNK         0.0288 
     33 CB         24.4665   25.0817   -3.9484 C.3       2 UNK        -0.2113 
     34 N          26.3919   24.6155   -2.5037 N.am      2 UNK        -0.4145 
     35 C          27.1389   24.0861   -1.5205 C.2       1 UNK         0.5006 
     36 O          26.6582   23.4652   -0.5708 O.2       1 UNK        -0.5103 
     37 C          28.8459   27.2934    4.8307 C.2       5 UNK         0.5055 
     38 O          28.9840   27.8973    5.8951 O.2       5 UNK        -0.5220 
     39 N          28.5515   27.8910    3.6739 N.am      6 UNK        -0.4450 
     40 CA         28.3780   29.3215    3.4408 C.3       6 UNK         0.0367 
     41 CB         26.9433   29.7453    3.8112 C.3       6 UNK        -0.1929 
     42 C          28.7438   29.6627    1.9862 C.2       6 UNK         0.5070 
     43 O          28.1902   30.6054    1.4199 O.2       6 UNK        -0.5237 
     44 N          29.6619   28.8830    1.3933 N.am      7 UNK        -0.4739 
     45 CA         30.1520   29.0582    0.0212 C.3       7 UNK         0.0276 
     46 CB         30.9285   27.7978   -0.3929 C.3       7 UNK        -0.1927 
     47 C          31.0234   30.3164   -0.1548 C.2       7 UNK         0.5013 
     48 O          31.1137   30.8451   -1.2634 O.2       7 UNK        -0.5193 
     49 N          31.6299   30.7741    0.9432 N.am      8 UNK        -0.4253 
     50 CA         32.3996   32.0013    1.0810 C.3       8 UNK         0.0242 
     51 CB         33.8609   31.7448    0.6691 C.3       8 UNK        -0.2000 
     52 C          32.3069   32.4292    2.5497 C.2       8 UNK         0.4948 
     53 O          31.9471   31.6109    3.4014 O.2       8 UNK        -0.5275 
     54 N          32.6832   33.6818    2.8413 N.am      9 UNK        -0.4246 
     55 CA         32.7261   34.2398    4.2017 C.3       9 UNK         0.0261 
     56 CB         33.0989   35.7295    4.1329 C.3       9 UNK        -0.1959 
     57 C          33.6790   33.4880    5.1523 C.2       9 UNK         0.5033 
     58 O          33.4296   33.4476    6.3579 O.2       9 UNK        -0.5390 
     59 N          34.7253   32.8712    4.5852 N.am      10 UNK        -0.4215 
     60 CA         35.6791   32.0012    5.2743 C.3       10 UNK         0.0240 
     61 CB         36.8517   31.7010    4.3256 C.3       10 UNK        -0.1982 
     62 C          35.0708   30.6871    5.8030 C.2       10 UNK         0.4970 
     63 O          35.6740   30.0776    6.6874 O.2       10 UNK        -0.4916 
     64 N          33.9148   30.2640    5.2694 N.am      11 UNK        -0.4279 
     65 CA         33.2016   29.0545    5.7099 C.3       11 UNK         0.1003 
     66 C          32.4691   29.2058    7.0747 C.2       11 UNK         0.5709 
     67 N          32.2934   30.4100    7.6088 N.am      11 UNK        -0.7358 
     68 O          32.0754   28.2062    7.6704 O.2       11 UNK        -0.4999 
     69 C69        32.2392   28.5038    4.6238 C.3       12 UNK        -0.0954 
     70 S70        33.0149   28.2600    2.9909 S.3       12 UNK        -0.2268 
     71 C71        33.9972   26.7509    3.2490 C.3       12 UNK         0.0203 
     72 H72        28.9559   22.7040   -5.8270 H         1 UNK         0.0888 
     73 H73        30.1205   23.9408   -5.3491 H         1 UNK         0.0888 
     74 H74        30.5222   22.2333   -5.1611 H         1 UNK         0.0888 
     75 H75        29.5966   24.8965   -3.4196 H         1 UNK         0.3017 
     76 H76        28.8063   25.3692   -1.4225 H         1 UNK         0.0873 
     77 H77        29.1131   23.7893    0.4600 H         1 UNK         0.0745 
     78 H78        29.3346   22.4583   -0.6523 H         1 UNK         0.0745 
     79 H79        32.8708   22.4792    0.4231 H         1 UNK         0.0705 
     80 H80        31.2553   22.0208    0.8916 H         1 UNK         0.0705 
     81 H81        33.2440   25.2345    1.1232 H         1 UNK         0.1334 
     82 H82        32.9073   25.4516    5.3889 H         1 UNK         0.1417 
     83 H83        31.0887   22.2023    3.2633 H         1 UNK         0.1562 
     84 H84        31.9750   23.6378    6.6278 H         1 UNK         0.0748 
     85 H85        31.7263   22.1178    5.8112 H         1 UNK         0.0748 
     86 H86        30.3733   25.6001    6.4680 H         1 UNK         0.0940 
     87 H87        28.7031   25.3496    6.8997 H         1 UNK         0.0940 
     88 H88        29.8005   25.5669    4.0559 H         1 UNK         0.0703 
     89 H89        27.1974   24.6607    4.9333 H         1 UNK         0.3081 
     90 H90        26.3925   23.4194    2.1750 H         1 UNK         0.0719 
     91 H91        25.6487   23.3469    4.5006 H         1 UNK         0.0809 
     92 H92        24.2418   23.6121    3.4937 H         1 UNK         0.0809 
     93 H93        24.9332   24.9529    4.3984 H         1 UNK         0.0809 
     94 H94        25.5102   24.7009    0.6378 H         1 UNK         0.2990 
     95 H95        23.3199   27.0743    0.3299 H         1 UNK         0.0690 
     96 H96        24.6771   28.9425   -0.6666 H         1 UNK         0.0788 
     97 H97        26.0645   28.4505    0.3066 H         1 UNK         0.0788 
     98 H98        24.6072   29.0527    1.0817 H         1 UNK         0.0788 
     99 H99        25.7458   26.5440   -1.2450 H         1 UNK         0.2993 
    100 H100       24.6502   23.4806   -2.5289 H         1 UNK         0.0949 
    101 H101       23.3826   25.0103   -4.0511 H         1 UNK         0.0767 
    102 H102       24.7375   26.1306   -4.0765 H         1 UNK         0.0767 
    103 H103       24.9051   24.5171   -4.7716 H         1 UNK         0.0767 
    104 H104       26.8631   25.0915   -3.2596 H         1 UNK         0.3013 
    105 H105       28.4064   27.2838    2.8673 H         1 UNK         0.3121 
    106 H106       29.0771   29.8720    4.0738 H         1 UNK         0.0774 
    107 H107       26.8035   30.8192    3.6823 H         1 UNK         0.0815 
    108 H108       26.2050   29.2402    3.1876 H         1 UNK         0.0815 
    109 H109       26.7159   29.5144    4.8519 H         1 UNK         0.0815 
    110 H110       30.0901   28.1430    1.9314 H         1 UNK         0.2987 
    111 H111       29.2866   29.1633   -0.6368 H         1 UNK         0.0949 
    112 H112       30.3171   26.9021   -0.2862 H         1 UNK         0.0806 
    113 H113       31.2412   27.8564   -1.4362 H         1 UNK         0.0806 
    114 H114       31.8274   27.6587    0.2087 H         1 UNK         0.0806 
    115 H115       31.4734   30.2973    1.8238 H         1 UNK         0.3010 
    116 H116       31.9596   32.7817    0.4565 H         1 UNK         0.0829 
    117 H117       33.9268   31.4117   -0.3668 H         1 UNK         0.0813 
    118 H118       34.4623   32.6505    0.7537 H         1 UNK         0.0813 
    119 H119       34.3257   30.9802    1.2936 H         1 UNK         0.0813 
    120 H120       32.9655   34.2955    2.0896 H         1 UNK         0.3038 
    121 H121       31.7213   34.1573    4.6218 H         1 UNK         0.0769 
    122 H122       34.0859   35.8804    3.6939 H         1 UNK         0.0811 
    123 H123       33.1146   36.1736    5.1294 H         1 UNK         0.0811 
    124 H124       32.3771   36.2933    3.5417 H         1 UNK         0.0811 
    125 H125       34.8449   32.9716    3.5883 H         1 UNK         0.3204 
    126 H126       36.0655   32.5483    6.1368 H         1 UNK         0.0748 
    127 H127       37.6041   31.0823    4.8172 H         1 UNK         0.0771 
    128 H128       37.3492   32.6167    4.0051 H         1 UNK         0.0771 
    129 H129       36.5226   31.1655    3.4338 H         1 UNK         0.0771 
    130 H130       33.4428   30.8173    4.5631 H         1 UNK         0.2980 
    131 H131       33.9565   28.2856    5.8800 H         1 UNK         0.0545 
    132 H132       32.6262   31.2376    7.1359 H         1 UNK         0.3459 
    133 H133       31.8248   30.4903    8.4970 H         1 UNK         0.3459 
    134 H134       31.4031   29.1908    4.4884 H         1 UNK         0.0616 
    135 H135       31.7996   27.5598    4.9441 H         1 UNK         0.0616 
    136 H136       34.5688   26.8300    4.1740 H         1 UNK         0.0634 
    137 H137       34.7362   26.6844    2.4492 H         1 UNK         0.0634 
@<TRIPOS>BOND
     1    1    2 1    
     2    1   72 1    
     3    1   73 1    
     4    1   74 1    
     5    2    3 2    
     6    2    4 am   BACKBONE|DICT|INTERRES
     7    4    5 1    
     8    4   75 1    
     9    5    6 1    
    10    5   35 1    
    11    5   76 1    
    12    6    7 1    
    13    6   77 1    
    14    6   78 1    
    15    7    8 1    
    16    8    9 1    
    17    8   79 1    
    18    8   80 1    
    19    9   10 ar   
    20    9   14 ar   
    21   10   11 ar   
    22   10   81 1    
    23   11   12 ar   
    24   11   71 1    
    25   12   13 ar   
    26   12   82 1    
    27   13   14 ar   
    28   13   15 1    
    29   14   83 1    
    30   15   16 1    
    31   15   84 1    
    32   15   85 1    
    33   16   17 1    
    34   17   18 1    
    35   17   86 1    
    36   17   87 1    
    37   18   19 1    
    38   18   37 1    
    39   18   88 1    
    40   19   20 am   BACKBONE|DICT|INTERRES
    41   19   89 1    
    42   20   21 2    
    43   20   22 1    
    44   22   23 1    
    45   22   24 1    
    46   22   90 1    
    47   23   91 1    
    48   23   92 1    
    49   23   93 1    
    50   24   25 am   BACKBONE|DICT|INTERRES
    51   24   94 1    
    52   25   26 2    
    53   25   27 1    
    54   27   28 1    
    55   27   29 1    
    56   27   95 1    
    57   28   96 1    
    58   28   97 1    
    59   28   98 1    
    60   29   30 am   BACKBONE|DICT|INTERRES
    61   29   99 1    
    62   30   31 2    
    63   30   32 1    
    64   32   33 1    
    65   32   34 1    
    66   32  100 1    
    67   33  101 1    
    68   33  102 1    
    69   33  103 1    
    70   34   35 am   BACKBONE|DICT|INTERRES
    71   34  104 1    
    72   35   36 2    
    73   37   38 2    
    74   37   39 am   BACKBONE|DICT|INTERRES
    75   39   40 1    
    76   39  105 1    
    77   40   41 1    
    78   40   42 1    
    79   40  106 1    
    80   41  107 1    
    81   41  108 1    
    82   41  109 1    
    83   42   43 2    
    84   42   44 am   BACKBONE|DICT|INTERRES
    85   44   45 1    
    86   44  110 1    
    87   45   46 1    
    88   45   47 1    
    89   45  111 1    
    90   46  112 1    
    91   46  113 1    
    92   46  114 1    
    93   47   48 2    
    94   47   49 am   BACKBONE|DICT|INTERRES
    95   49   50 1    
    96   49  115 1    
    97   50   51 1    
    98   50   52 1    
    99   50  116 1    
   100   51  117 1    
   101   51  118 1    
   102   51  119 1    
   103   52   53 2    
   104   52   54 am   BACKBONE|DICT|INTERRES
   105   54   55 1    
   106   54  120 1    
   107   55   56 1    
   108   55   57 1    
   109   55  121 1    
   110   56  122 1    
   111   56  123 1    
   112   56  124 1    
   113   57   58 2    
   114   57   59 am   BACKBONE|DICT|INTERRES
   115   59   60 1    
   116   59  125 1    
   117   60   61 1    
   118   60   62 1    
   119   60  126 1    
   120   61  127 1    
   121   61  128 1    
   122   61  129 1    
   123   62   63 2    
   124   62   64 am   BACKBONE|DICT|INTERRES
   125   64   65 1    
   126   64  130 1    
   127   65   66 1    
   128   65   69 1    
   129   65  131 1    
   130   66   67 am   BACKBONE|DICT|INTERRES
   131   66   68 2    
   132   67  132 1    
   133   67  133 1    
   134   69   70 1    
   135   69  134 1    
   136   69  135 1    
   137   70   71 1    
   138   71  136 1    
   139   71  137 1    
@<TRIPOS>SUBSTRUCTURE
     1 UNK         1 GROUP             0       ****    0 ROOT    
