@<TRIPOS>MOLECULE
3R136
137   139    1
SMALL
USER_CHARGES


@<TRIPOS>ATOM
      1 CA         26.9739   19.8639   -2.1933 C.3       0 UNK        -0.1979 
      2 C          27.6941   19.0680   -1.1062 C.2       0 UNK         0.4864 
      3 O          27.5050   17.8550   -1.0259 O.2       0 UNK        -0.5359 
      4 N          28.5339   19.6851   -0.2614 N.am      1 UNK        -0.4318 
      5 CA         28.8037   21.1243   -0.1664 C.3       1 UNK         0.0824 
      6 C6         30.0719   21.3885    0.6805 C.3       12 UNK        -0.0944 
      7 S7         30.7958   23.0361    0.3794 S.3       12 UNK        -0.2672 
      8 C8         32.1159   23.0537    1.6350 C.3       12 UNK         0.0333 
      9 C9         31.7852   23.9583    2.8158 C.ar      12 UNK        -0.0807 
     10 C10        32.5981   25.0608    3.0962 C.ar      12 UNK        -0.0894 
     11 C11        32.3314   25.8811    4.1956 C.ar      12 UNK        -0.0804 
     12 C12        31.2389   25.5945    5.0172 C.ar      12 UNK        -0.0824 
     13 C13        30.3969   24.5171    4.7307 C.ar      12 UNK        -0.0762 
     14 C14        30.6846   23.6925    3.6379 C.ar      12 UNK        -0.0782 
     15 C15        29.1631   24.2578    5.5879 C.3       12 UNK         0.0230 
     16 S16        28.0417   25.6990    5.6667 S.3       12 UNK        -0.2608 
     17 C17        27.7746   26.0730    3.9014 C.3       12 UNK        -0.0989 
     18 CA         28.5064   27.3761    3.4655 C.3       5 UNK         0.0716 
     19 N          29.1596   27.2300    2.1643 N.am      5 UNK        -0.4135 
     20 C          30.0397   28.0950    1.6422 C.2       4 UNK         0.5031 
     21 O          30.4657   29.0857    2.2341 O.2       4 UNK        -0.5229 
     22 CA         30.4941   27.8325    0.1969 C.3       4 UNK         0.0329 
     23 CB         31.7523   26.9528    0.1753 C.3       4 UNK        -0.2001 
     24 N          29.4453   27.2252   -0.6300 N.am      4 UNK        -0.4303 
     25 C          28.3162   27.8575   -0.9823 C.2       3 UNK         0.5044 
     26 O          28.0561   29.0180   -0.6682 O.2       3 UNK        -0.5152 
     27 CA         27.2800   27.0455   -1.7768 C.3       3 UNK         0.0319 
     28 CB         27.6899   26.9407   -3.2546 C.3       3 UNK        -0.2001 
     29 N          27.0174   25.7040   -1.2402 N.am      3 UNK        -0.4354 
     30 C          26.5994   25.4397    0.0083 C.2       2 UNK         0.4964 
     31 O          26.4847   26.2891    0.8905 O.2       2 UNK        -0.5047 
     32 CA         26.2737   23.9810    0.3366 C.3       2 UNK         0.0288 
     33 CB         24.9340   23.5560   -0.2954 C.3       2 UNK        -0.2113 
     34 N          27.3594   23.0997   -0.0905 N.am      2 UNK        -0.4145 
     35 C          27.5839   21.8775    0.4042 C.2       1 UNK         0.5006 
     36 O          26.8884   21.3471    1.2746 O.2       1 UNK        -0.5103 
     37 C          27.5643   28.5958    3.4599 C.2       5 UNK         0.5055 
     38 O          27.7008   29.4824    4.3062 O.2       5 UNK        -0.5220 
     39 N          26.6608   28.6243    2.4674 N.am      6 UNK        -0.4450 
     40 CA         25.6676   29.6735    2.2280 C.3       6 UNK         0.0367 
     41 CB         24.7726   29.2662    1.0471 C.3       6 UNK        -0.1929 
     42 C          26.2798   31.0623    1.9871 C.2       6 UNK         0.5070 
     43 O          25.7160   32.0549    2.4472 O.2       6 UNK        -0.5237 
     44 N          27.4478   31.1156    1.3332 N.am      7 UNK        -0.4739 
     45 CA         28.2590   32.3181    1.1040 C.3       7 UNK         0.0276 
     46 CB         29.2314   32.0382   -0.0571 C.3       7 UNK        -0.1927 
     47 C          28.9918   32.8323    2.3664 C.2       7 UNK         0.5013 
     48 O          30.1190   33.3164    2.2587 O.2       7 UNK        -0.5193 
     49 N          28.3409   32.7289    3.5343 N.am      8 UNK        -0.4253 
     50 CA         28.8054   33.1198    4.8695 C.3       8 UNK         0.0242 
     51 CB         28.8900   34.6574    4.9827 C.3       8 UNK        -0.2000 
     52 C          30.1084   32.4099    5.2873 C.2       8 UNK         0.4948 
     53 O          31.0132   33.0589    5.8163 O.2       8 UNK        -0.5275 
     54 N          30.1661   31.0899    5.0468 N.am      9 UNK        -0.4246 
     55 CA         31.2949   30.1904    5.3162 C.3       9 UNK         0.0261 
     56 CB         31.4968   30.0062    6.8357 C.3       9 UNK        -0.1959 
     57 C          32.5824   30.6220    4.5830 C.2       9 UNK         0.5033 
     58 O          33.5968   30.9235    5.2165 O.2       9 UNK        -0.5390 
     59 N          32.5152   30.6356    3.2476 N.am      10 UNK        -0.4215 
     60 CA         33.6014   30.9991    2.3374 C.3       10 UNK         0.0240 
     61 CB         32.9911   31.4569    0.9993 C.3       10 UNK        -0.1982 
     62 C          34.5984   29.8390    2.1577 C.2       10 UNK         0.4970 
     63 O          34.6717   29.2509    1.0772 O.2       10 UNK        -0.4916 
     64 N          35.3383   29.5195    3.2225 N.am      11 UNK        -0.4279 
     65 CA         36.3734   28.4790    3.2580 C.3       11 UNK         0.1003 
     66 C          37.4619   28.7925    4.3202 C.2       11 UNK         0.5709 
     67 N          38.5400   28.0205    4.3532 N.am      11 UNK        -0.7358 
     68 O          37.3482   29.7303    5.1087 O.2       11 UNK        -0.4999 
     69 C69        35.7783   27.0432    3.3612 C.3       12 UNK        -0.0954 
     70 S70        34.8954   26.7051    4.9250 S.3       12 UNK        -0.2268 
     71 C71        33.1817   27.1089    4.4736 C.3       12 UNK         0.0203 
     72 H72        27.6660   20.4854   -2.7598 H         1 UNK         0.0888 
     73 H73        26.4922   19.1886   -2.9002 H         1 UNK         0.0888 
     74 H74        26.1984   20.4965   -1.7624 H         1 UNK         0.0888 
     75 H75        28.9718   19.1250    0.4555 H         1 UNK         0.3017 
     76 H76        28.9971   21.4851   -1.1782 H         1 UNK         0.0873 
     77 H77        29.8725   21.2519    1.7449 H         1 UNK         0.0745 
     78 H78        30.8430   20.6589    0.4258 H         1 UNK         0.0745 
     79 H79        32.3127   22.0442    1.9985 H         1 UNK         0.0705 
     80 H80        33.0365   23.3814    1.1498 H         1 UNK         0.0705 
     81 H81        33.4419   25.2808    2.4584 H         1 UNK         0.1334 
     82 H82        31.0161   26.2316    5.8624 H         1 UNK         0.1417 
     83 H83        30.0445   22.8500    3.4189 H         1 UNK         0.1562 
     84 H84        29.4797   23.9993    6.5992 H         1 UNK         0.0748 
     85 H85        28.6022   23.4005    5.2121 H         1 UNK         0.0748 
     86 H86        26.6992   26.1176    3.7166 H         1 UNK         0.0940 
     87 H87        28.1164   25.2203    3.3130 H         1 UNK         0.0940 
     88 H88        29.3040   27.5910    4.1792 H         1 UNK         0.0703 
     89 H89        28.8347   26.4734    1.5822 H         1 UNK         0.3081 
     90 H90        30.7513   28.7986   -0.2429 H         1 UNK         0.0719 
     91 H91        32.5405   27.3831    0.7953 H         1 UNK         0.0809 
     92 H92        32.1525   26.8561   -0.8338 H         1 UNK         0.0809 
     93 H93        31.5490   25.9518    0.5535 H         1 UNK         0.0809 
     94 H94        29.5878   26.2736   -0.9355 H         1 UNK         0.2990 
     95 H95        26.3383   27.5966   -1.7299 H         1 UNK         0.0690 
     96 H96        26.9027   26.4822   -3.8534 H         1 UNK         0.0788 
     97 H97        28.5979   26.3505   -3.3843 H         1 UNK         0.0788 
     98 H98        27.8801   27.9284   -3.6776 H         1 UNK         0.0788 
     99 H99        27.0354   24.9508   -1.9119 H         1 UNK         0.2993 
    100 H100       26.1793   23.9144    1.4233 H         1 UNK         0.0949 
    101 H101       24.6346   22.5623    0.0386 H         1 UNK         0.0767 
    102 H102       24.1343   24.2428   -0.0144 H         1 UNK         0.0767 
    103 H103       24.9850   23.5394   -1.3846 H         1 UNK         0.0767 
    104 H104       28.0277   23.4880   -0.7412 H         1 UNK         0.3013 
    105 H105       26.6343   27.8317    1.8270 H         1 UNK         0.3121 
    106 H106       25.0457   29.7406    3.1228 H         1 UNK         0.0774 
    107 H107       25.3465   29.1600    0.1259 H         1 UNK         0.0815 
    108 H108       23.9991   30.0138    0.8665 H         1 UNK         0.0815 
    109 H109       24.2697   28.3180    1.2382 H         1 UNK         0.0815 
    110 H110       27.8104   30.2524    0.9401 H         1 UNK         0.2987 
    111 H111       27.5894   33.1212    0.7893 H         1 UNK         0.0949 
    112 H112       29.9358   31.2458    0.1977 H         1 UNK         0.0806 
    113 H113       28.6972   31.7335   -0.9572 H         1 UNK         0.0806 
    114 H114       29.8119   32.9251   -0.3141 H         1 UNK         0.0806 
    115 H115       27.4040   32.3414    3.4901 H         1 UNK         0.3010 
    116 H116       28.0401   32.7802    5.5691 H         1 UNK         0.0829 
    117 H117       29.6670   35.0678    4.3368 H         1 UNK         0.0813 
    118 H118       27.9450   35.1281    4.7116 H         1 UNK         0.0813 
    119 H119       29.1214   34.9625    6.0039 H         1 UNK         0.0813 
    120 H120       29.3554   30.6537    4.6159 H         1 UNK         0.3038 
    121 H121       31.0098   29.2216    4.9057 H         1 UNK         0.0769 
    122 H122       32.2923   29.2897    7.0423 H         1 UNK         0.0811 
    123 H123       31.7721   30.9406    7.3256 H         1 UNK         0.0811 
    124 H124       30.5910   29.6316    7.3123 H         1 UNK         0.0811 
    125 H125       31.6677   30.2675    2.8136 H         1 UNK         0.3204 
    126 H126       34.1494   31.8439    2.7601 H         1 UNK         0.0748 
    127 H127       32.3466   32.3250    1.1352 H         1 UNK         0.0771 
    128 H128       33.7692   31.7414    0.2899 H         1 UNK         0.0771 
    129 H129       32.3969   30.6683    0.5361 H         1 UNK         0.0771 
    130 H130       35.2146   30.0373    4.0871 H         1 UNK         0.2980 
    131 H131       36.9025   28.5416    2.3051 H         1 UNK         0.0545 
    132 H132       38.6502   27.2491    3.7141 H         1 UNK         0.3459 
    133 H133       39.2568   28.2114    5.0358 H         1 UNK         0.3459 
    134 H134       35.1110   26.8596    2.5191 H         1 UNK         0.0616 
    135 H135       36.5711   26.3007    3.2617 H         1 UNK         0.0616 
    136 H136       32.7603   27.6754    5.3021 H         1 UNK         0.0634 
    137 H137       33.1509   27.7639    3.6041 H         1 UNK         0.0634 
@<TRIPOS>BOND
     1    1    2 1    
     2    1   72 1    
     3    1   73 1    
     4    1   74 1    
     5    2    3 2    
     6    2    4 am   BACKBONE|DICT|INTERRES
     7    4    5 1    
     8    4   75 1    
     9    5    6 1    
    10    5   35 1    
    11    5   76 1    
    12    6    7 1    
    13    6   77 1    
    14    6   78 1    
    15    7    8 1    
    16    8    9 1    
    17    8   79 1    
    18    8   80 1    
    19    9   10 ar   
    20    9   14 ar   
    21   10   11 ar   
    22   10   81 1    
    23   11   12 ar   
    24   11   71 1    
    25   12   13 ar   
    26   12   82 1    
    27   13   14 ar   
    28   13   15 1    
    29   14   83 1    
    30   15   16 1    
    31   15   84 1    
    32   15   85 1    
    33   16   17 1    
    34   17   18 1    
    35   17   86 1    
    36   17   87 1    
    37   18   19 1    
    38   18   37 1    
    39   18   88 1    
    40   19   20 am   BACKBONE|DICT|INTERRES
    41   19   89 1    
    42   20   21 2    
    43   20   22 1    
    44   22   23 1    
    45   22   24 1    
    46   22   90 1    
    47   23   91 1    
    48   23   92 1    
    49   23   93 1    
    50   24   25 am   BACKBONE|DICT|INTERRES
    51   24   94 1    
    52   25   26 2    
    53   25   27 1    
    54   27   28 1    
    55   27   29 1    
    56   27   95 1    
    57   28   96 1    
    58   28   97 1    
    59   28   98 1    
    60   29   30 am   BACKBONE|DICT|INTERRES
    61   29   99 1    
    62   30   31 2    
    63   30   32 1    
    64   32   33 1    
    65   32   34 1    
    66   32  100 1    
    67   33  101 1    
    68   33  102 1    
    69   33  103 1    
    70   34   35 am   BACKBONE|DICT|INTERRES
    71   34  104 1    
    72   35   36 2    
    73   37   38 2    
    74   37   39 am   BACKBONE|DICT|INTERRES
    75   39   40 1    
    76   39  105 1    
    77   40   41 1    
    78   40   42 1    
    79   40  106 1    
    80   41  107 1    
    81   41  108 1    
    82   41  109 1    
    83   42   43 2    
    84   42   44 am   BACKBONE|DICT|INTERRES
    85   44   45 1    
    86   44  110 1    
    87   45   46 1    
    88   45   47 1    
    89   45  111 1    
    90   46  112 1    
    91   46  113 1    
    92   46  114 1    
    93   47   48 2    
    94   47   49 am   BACKBONE|DICT|INTERRES
    95   49   50 1    
    96   49  115 1    
    97   50   51 1    
    98   50   52 1    
    99   50  116 1    
   100   51  117 1    
   101   51  118 1    
   102   51  119 1    
   103   52   53 2    
   104   52   54 am   BACKBONE|DICT|INTERRES
   105   54   55 1    
   106   54  120 1    
   107   55   56 1    
   108   55   57 1    
   109   55  121 1    
   110   56  122 1    
   111   56  123 1    
   112   56  124 1    
   113   57   58 2    
   114   57   59 am   BACKBONE|DICT|INTERRES
   115   59   60 1    
   116   59  125 1    
   117   60   61 1    
   118   60   62 1    
   119   60  126 1    
   120   61  127 1    
   121   61  128 1    
   122   61  129 1    
   123   62   63 2    
   124   62   64 am   BACKBONE|DICT|INTERRES
   125   64   65 1    
   126   64  130 1    
   127   65   66 1    
   128   65   69 1    
   129   65  131 1    
   130   66   67 am   BACKBONE|DICT|INTERRES
   131   66   68 2    
   132   67  132 1    
   133   67  133 1    
   134   69   70 1    
   135   69  134 1    
   136   69  135 1    
   137   70   71 1    
   138   71  136 1    
   139   71  137 1    
@<TRIPOS>SUBSTRUCTURE
     1 UNK         1 GROUP             0       ****    0 ROOT    
