@<TRIPOS>MOLECULE
3R136
137   139    1
SMALL
USER_CHARGES


@<TRIPOS>ATOM
      1 CA         30.4776   27.7288   -2.3086 C.3       0 UNK        -0.1979 
      2 C          30.0028   26.2971   -2.1181 C.2       0 UNK         0.4864 
      3 O          30.2182   25.4640   -2.9992 O.2       0 UNK        -0.5359 
      4 N          29.3620   26.0169   -0.9740 N.am      1 UNK        -0.4318 
      5 CA         28.8926   24.6930   -0.5309 C.3       1 UNK         0.0824 
      6 C6         30.0530   23.6981   -0.2387 C.3       12 UNK        -0.0944 
      7 S7         31.2799   24.3875    0.9207 S.3       12 UNK        -0.2672 
      8 C8         30.8468   23.5506    2.4749 C.3       12 UNK         0.0333 
      9 C9         31.2134   24.4206    3.6666 C.ar      12 UNK        -0.0807 
     10 C10        32.5533   24.6230    4.0079 C.ar      12 UNK        -0.0894 
     11 C11        32.8922   25.4496    5.0819 C.ar      12 UNK        -0.0804 
     12 C12        31.8795   26.0690    5.8207 C.ar      12 UNK        -0.0824 
     13 C13        30.5327   25.8779    5.4918 C.ar      12 UNK        -0.0762 
     14 C14        30.2103   25.0382    4.4180 C.ar      12 UNK        -0.0782 
     15 C15        29.4603   26.5688    6.3369 C.3       12 UNK         0.0230 
     16 S16        27.8466   26.8282    5.5184 S.3       12 UNK        -0.2608 
     17 C17        28.2604   27.9333    4.1219 C.3       12 UNK        -0.0989 
     18 CA         27.7298   27.3941    2.7686 C.3       5 UNK         0.0716 
     19 N          26.2917   27.0991    2.8182 N.am      5 UNK        -0.4135 
     20 C          25.5740   26.5408    1.8358 C.2       4 UNK         0.5031 
     21 O          26.0406   26.2021    0.7418 O.2       4 UNK        -0.5229 
     22 CA         24.0709   26.3616    2.1183 C.3       4 UNK         0.0329 
     23 CB         23.3482   27.7195    2.0914 C.3       4 UNK        -0.2001 
     24 N          23.4833   25.4996    1.0969 N.am      4 UNK        -0.4303 
     25 C          23.5830   24.1641    1.0849 C.2       3 UNK         0.5044 
     26 O          23.8881   23.4753    2.0587 O.2       3 UNK        -0.5152 
     27 CA         23.4312   23.5206   -0.2936 C.3       3 UNK         0.0319 
     28 CB         22.0070   23.7098   -0.8577 C.3       3 UNK        -0.2001 
     29 N          24.4524   24.1314   -1.1448 N.am      3 UNK        -0.4354 
     30 C          24.7753   23.7940   -2.3969 C.2       2 UNK         0.4964 
     31 O          24.2120   22.9129   -3.0469 O.2       2 UNK        -0.5047 
     32 CA         25.9402   24.5758   -3.0287 C.3       2 UNK         0.0288 
     33 CB         25.4226   25.8435   -3.7281 C.3       2 UNK        -0.2113 
     34 N          26.9798   24.9506   -2.0642 N.am      2 UNK        -0.4145 
     35 C          27.8219   24.0894   -1.4725 C.2       1 UNK         0.5006 
     36 O          27.7802   22.8709   -1.6587 O.2       1 UNK        -0.5103 
     37 C          28.0904   28.3535    1.6150 C.2       5 UNK         0.5055 
     38 O          29.0934   28.1310    0.9348 O.2       5 UNK        -0.5220 
     39 N          27.2395   29.3653    1.3822 N.am      6 UNK        -0.4450 
     40 CA         27.3185   30.3441    0.2931 C.3       6 UNK         0.0367 
     41 CB         27.0035   29.6617   -1.0600 C.3       6 UNK        -0.1929 
     42 C          28.6518   31.1175    0.3219 C.2       6 UNK         0.5070 
     43 O          28.8986   31.8473    1.2820 O.2       6 UNK        -0.5237 
     44 N          29.4881   30.9357   -0.7081 N.am      7 UNK        -0.4739 
     45 CA         30.8084   31.5570   -0.8514 C.3       7 UNK         0.0276 
     46 CB         31.2308   31.4866   -2.3297 C.3       7 UNK        -0.1927 
     47 C          31.9036   30.9673    0.0632 C.2       7 UNK         0.5013 
     48 O          33.0182   31.4928    0.0519 O.2       7 UNK        -0.5193 
     49 N          31.5973   29.8979    0.8145 N.am      8 UNK        -0.4253 
     50 CA         32.4751   29.3012    1.8240 C.3       8 UNK         0.0242 
     51 CB         32.1590   27.7953    1.9337 C.3       8 UNK        -0.2000 
     52 C          32.3553   30.0772    3.1533 C.2       8 UNK         0.4948 
     53 O          32.5644   31.2911    3.1655 O.2       8 UNK        -0.5275 
     54 N          32.0470   29.3815    4.2578 N.am      9 UNK        -0.4246 
     55 CA         31.7673   29.8869    5.6148 C.3       9 UNK         0.0261 
     56 CB         30.5398   30.8194    5.6225 C.3       9 UNK        -0.1959 
     57 C          32.9487   30.5363    6.3623 C.2       9 UNK         0.5033 
     58 O          33.0175   30.4023    7.5842 O.2       9 UNK        -0.5390 
     59 N          33.8538   31.2142    5.6460 N.am      10 UNK        -0.4215 
     60 CA         35.0869   31.8051    6.1805 C.3       10 UNK         0.0240 
     61 CB         35.6887   32.7532    5.1308 C.3       10 UNK        -0.1982 
     62 C          36.1231   30.7503    6.6138 C.2       10 UNK         0.4970 
     63 O          36.9322   31.0207    7.5021 O.2       10 UNK        -0.4916 
     64 N          36.0740   29.5767    5.9751 N.am      11 UNK        -0.4279 
     65 CA         36.8224   28.3611    6.3142 C.3       11 UNK         0.1003 
     66 C          36.4663   27.7860    7.7141 C.2       11 UNK         0.5709 
     67 N          37.4067   27.1089    8.3593 N.am      11 UNK        -0.7358 
     68 O          35.3450   27.9089    8.2021 O.2       11 UNK        -0.4999 
     69 C69        36.6819   27.2884    5.1958 C.3       12 UNK        -0.0954 
     70 S70        34.9925   27.1193    4.5172 S.3       12 UNK        -0.2268 
     71 C71        34.3523   25.6877    5.4320 C.3       12 UNK         0.0203 
     72 H72        29.8302   28.2504   -3.0125 H         1 UNK         0.0888 
     73 H73        30.4840   28.2755   -1.3674 H         1 UNK         0.0888 
     74 H74        31.4927   27.7383   -2.7044 H         1 UNK         0.0888 
     75 H75        29.2447   26.7614   -0.2885 H         1 UNK         0.3017 
     76 H76        28.3756   24.8675    0.4136 H         1 UNK         0.0873 
     77 H77        29.6704   22.7589    0.1649 H         1 UNK         0.0745 
     78 H78        30.5728   23.4372   -1.1622 H         1 UNK         0.0745 
     79 H79        31.3709   22.5956    2.5326 H         1 UNK         0.0705 
     80 H80        29.7798   23.3230    2.4874 H         1 UNK         0.0705 
     81 H81        33.3321   24.1533    3.4225 H         1 UNK         0.1334 
     82 H82        32.1460   26.7031    6.6558 H         1 UNK         0.1417 
     83 H83        29.1764   24.8622    4.1586 H         1 UNK         0.1562 
     84 H84        29.8189   27.5361    6.6879 H         1 UNK         0.0748 
     85 H85        29.2934   25.9653    7.2300 H         1 UNK         0.0748 
     86 H86        29.3420   28.0700    4.0758 H         1 UNK         0.0940 
     87 H87        27.8385   28.9167    4.3380 H         1 UNK         0.0940 
     88 H88        28.2379   26.4510    2.5579 H         1 UNK         0.0703 
     89 H89        25.8319   27.3194    3.6900 H         1 UNK         0.3081 
     90 H90        23.9452   25.9039    3.1020 H         1 UNK         0.0719 
     91 H91        23.7115   28.3781    2.8811 H         1 UNK         0.0809 
     92 H92        22.2756   27.5990    2.2452 H         1 UNK         0.0809 
     93 H93        23.4933   28.2373    1.1421 H         1 UNK         0.0809 
     94 H94        23.2390   25.9558    0.2301 H         1 UNK         0.2990 
     95 H95        23.6439   22.4536   -0.2024 H         1 UNK         0.0690 
     96 H96        21.8627   23.1419   -1.7766 H         1 UNK         0.0788 
     97 H97        21.7871   24.7550   -1.0770 H         1 UNK         0.0788 
     98 H98        21.2575   23.3587   -0.1471 H         1 UNK         0.0788 
     99 H99        25.0213   24.8365   -0.6860 H         1 UNK         0.2993 
    100 H100       26.3970   23.9303   -3.7823 H         1 UNK         0.0949 
    101 H101       24.6589   25.5971   -4.4673 H         1 UNK         0.0767 
    102 H102       24.9777   26.5438   -3.0197 H         1 UNK         0.0767 
    103 H103       26.2251   26.3616   -4.2538 H         1 UNK         0.0767 
    104 H104       27.0651   25.9300   -1.8331 H         1 UNK         0.3013 
    105 H105       26.4583   29.4782    2.0120 H         1 UNK         0.3121 
    106 H106       26.5366   31.0823    0.4784 H         1 UNK         0.0774 
    107 H107       26.9990   30.3847   -1.8768 H         1 UNK         0.0815 
    108 H108       27.7180   28.8771   -1.3094 H         1 UNK         0.0815 
    109 H109       26.0153   29.2017   -1.0396 H         1 UNK         0.0815 
    110 H110       29.1985   30.3142   -1.4482 H         1 UNK         0.2987 
    111 H111       30.7133   32.6107   -0.5795 H         1 UNK         0.0949 
    112 H112       30.4887   31.9516   -2.9790 H         1 UNK         0.0806 
    113 H113       32.1721   32.0136   -2.4927 H         1 UNK         0.0806 
    114 H114       31.3751   30.4592   -2.6630 H         1 UNK         0.0806 
    115 H115       30.6546   29.5277    0.7678 H         1 UNK         0.3010 
    116 H116       33.5115   29.3948    1.4931 H         1 UNK         0.0829 
    117 H117       32.8945   27.2762    2.5458 H         1 UNK         0.0813 
    118 H118       32.1829   27.3210    0.9525 H         1 UNK         0.0813 
    119 H119       31.1770   27.5989    2.3632 H         1 UNK         0.0813 
    120 H120       31.9770   28.3780    4.1563 H         1 UNK         0.3038 
    121 H121       31.5051   29.0061    6.1985 H         1 UNK         0.0769 
    122 H122       30.7236   31.7405    5.0685 H         1 UNK         0.0811 
    123 H123       30.2739   31.1038    6.6414 H         1 UNK         0.0811 
    124 H124       29.6677   30.3362    5.1852 H         1 UNK         0.0811 
    125 H125       33.6524   31.3416    4.6555 H         1 UNK         0.3204 
    126 H126       34.8258   32.3914    7.0641 H         1 UNK         0.0748 
    127 H127       36.5965   33.2274    5.5069 H         1 UNK         0.0771 
    128 H128       35.9515   32.2252    4.2130 H         1 UNK         0.0771 
    129 H129       34.9918   33.5503    4.8709 H         1 UNK         0.0771 
    130 H130       35.3557   29.4467    5.2791 H         1 UNK         0.2980 
    131 H131       37.8738   28.6523    6.3571 H         1 UNK         0.0545 
    132 H132       38.3274   26.9881    7.9667 H         1 UNK         0.3459 
    133 H133       37.1923   26.7152    9.2621 H         1 UNK         0.3459 
    134 H134       37.0517   26.3140    5.5212 H         1 UNK         0.0616 
    135 H135       37.3230   27.5718    4.3600 H         1 UNK         0.0616 
    136 H136       34.4573   25.8569    6.5042 H         1 UNK         0.0634 
    137 H137       34.9496   24.8063    5.1939 H         1 UNK         0.0634 
@<TRIPOS>BOND
     1    1    2 1    
     2    1   72 1    
     3    1   73 1    
     4    1   74 1    
     5    2    3 2    
     6    2    4 am   BACKBONE|DICT|INTERRES
     7    4    5 1    
     8    4   75 1    
     9    5    6 1    
    10    5   35 1    
    11    5   76 1    
    12    6    7 1    
    13    6   77 1    
    14    6   78 1    
    15    7    8 1    
    16    8    9 1    
    17    8   79 1    
    18    8   80 1    
    19    9   10 ar   
    20    9   14 ar   
    21   10   11 ar   
    22   10   81 1    
    23   11   12 ar   
    24   11   71 1    
    25   12   13 ar   
    26   12   82 1    
    27   13   14 ar   
    28   13   15 1    
    29   14   83 1    
    30   15   16 1    
    31   15   84 1    
    32   15   85 1    
    33   16   17 1    
    34   17   18 1    
    35   17   86 1    
    36   17   87 1    
    37   18   19 1    
    38   18   37 1    
    39   18   88 1    
    40   19   20 am   BACKBONE|DICT|INTERRES
    41   19   89 1    
    42   20   21 2    
    43   20   22 1    
    44   22   23 1    
    45   22   24 1    
    46   22   90 1    
    47   23   91 1    
    48   23   92 1    
    49   23   93 1    
    50   24   25 am   BACKBONE|DICT|INTERRES
    51   24   94 1    
    52   25   26 2    
    53   25   27 1    
    54   27   28 1    
    55   27   29 1    
    56   27   95 1    
    57   28   96 1    
    58   28   97 1    
    59   28   98 1    
    60   29   30 am   BACKBONE|DICT|INTERRES
    61   29   99 1    
    62   30   31 2    
    63   30   32 1    
    64   32   33 1    
    65   32   34 1    
    66   32  100 1    
    67   33  101 1    
    68   33  102 1    
    69   33  103 1    
    70   34   35 am   BACKBONE|DICT|INTERRES
    71   34  104 1    
    72   35   36 2    
    73   37   38 2    
    74   37   39 am   BACKBONE|DICT|INTERRES
    75   39   40 1    
    76   39  105 1    
    77   40   41 1    
    78   40   42 1    
    79   40  106 1    
    80   41  107 1    
    81   41  108 1    
    82   41  109 1    
    83   42   43 2    
    84   42   44 am   BACKBONE|DICT|INTERRES
    85   44   45 1    
    86   44  110 1    
    87   45   46 1    
    88   45   47 1    
    89   45  111 1    
    90   46  112 1    
    91   46  113 1    
    92   46  114 1    
    93   47   48 2    
    94   47   49 am   BACKBONE|DICT|INTERRES
    95   49   50 1    
    96   49  115 1    
    97   50   51 1    
    98   50   52 1    
    99   50  116 1    
   100   51  117 1    
   101   51  118 1    
   102   51  119 1    
   103   52   53 2    
   104   52   54 am   BACKBONE|DICT|INTERRES
   105   54   55 1    
   106   54  120 1    
   107   55   56 1    
   108   55   57 1    
   109   55  121 1    
   110   56  122 1    
   111   56  123 1    
   112   56  124 1    
   113   57   58 2    
   114   57   59 am   BACKBONE|DICT|INTERRES
   115   59   60 1    
   116   59  125 1    
   117   60   61 1    
   118   60   62 1    
   119   60  126 1    
   120   61  127 1    
   121   61  128 1    
   122   61  129 1    
   123   62   63 2    
   124   62   64 am   BACKBONE|DICT|INTERRES
   125   64   65 1    
   126   64  130 1    
   127   65   66 1    
   128   65   69 1    
   129   65  131 1    
   130   66   67 am   BACKBONE|DICT|INTERRES
   131   66   68 2    
   132   67  132 1    
   133   67  133 1    
   134   69   70 1    
   135   69  134 1    
   136   69  135 1    
   137   70   71 1    
   138   71  136 1    
   139   71  137 1    
@<TRIPOS>SUBSTRUCTURE
     1 UNK         1 GROUP             0       ****    0 ROOT    
