@<TRIPOS>MOLECULE
3R136
137   139    1
SMALL
USER_CHARGES


@<TRIPOS>ATOM
      1 CA         25.7239   21.3549    4.2981 C.3       0 UNK        -0.1979 
      2 C          26.0000   20.6553    2.9751 C.2       0 UNK         0.4864 
      3 O          25.2879   19.7154    2.6174 O.2       0 UNK        -0.5359 
      4 N          27.0327   21.1030    2.2515 N.am      1 UNK        -0.4318 
      5 CA         27.3953   20.6283    0.9138 C.3       1 UNK         0.0824 
      6 C6         28.8731   20.9577    0.5679 C.3       12 UNK        -0.0944 
      7 S7         29.3334   22.7100    0.8219 S.3       12 UNK        -0.2672 
      8 C8         30.3755   22.5737    2.3082 C.3       12 UNK         0.0333 
      9 C9         30.6293   23.9375    2.9300 C.ar      12 UNK        -0.0807 
     10 C10        31.7623   24.6776    2.5811 C.ar      12 UNK        -0.0894 
     11 C11        31.9955   25.9336    3.1521 C.ar      12 UNK        -0.0804 
     12 C12        31.0808   26.4484    4.0789 C.ar      12 UNK        -0.0824 
     13 C13        29.9404   25.7175    4.4298 C.ar      12 UNK        -0.0762 
     14 C14        29.7261   24.4600    3.8588 C.ar      12 UNK        -0.0782 
     15 C15        28.9189   26.2866    5.4035 C.3       12 UNK         0.0230 
     16 S16        27.3534   26.6934    4.5617 S.3       12 UNK        -0.2608 
     17 C17        27.8376   28.1470    3.5733 C.3       12 UNK        -0.0989 
     18 CA         28.3192   27.7842    2.1440 C.3       5 UNK         0.0716 
     19 N          27.2913   27.0941    1.3631 N.am      5 UNK        -0.4135 
     20 C          27.5296   26.4296    0.2261 C.2       4 UNK         0.5031 
     21 O          28.6487   26.3375   -0.2852 O.2       4 UNK        -0.5229 
     22 CA         26.3077   25.7350   -0.4068 C.3       4 UNK         0.0329 
     23 CB         25.2646   26.7514   -0.9191 C.3       4 UNK        -0.2001 
     24 N          26.6736   24.7629   -1.4451 N.am      4 UNK        -0.4303 
     25 C          27.1827   24.9919   -2.6679 C.2       3 UNK         0.5044 
     26 O          27.3194   26.1101   -3.1670 O.2       3 UNK        -0.5152 
     27 CA         27.6292   23.7648   -3.4902 C.3       3 UNK         0.0319 
     28 CB         29.1640   23.6691   -3.5120 C.3       3 UNK        -0.2001 
     29 N          27.0893   22.4951   -2.9995 N.am      3 UNK        -0.4354 
     30 C          25.8132   22.1018   -3.1175 C.2       2 UNK         0.4964 
     31 O          24.9583   22.7306   -3.7418 O.2       2 UNK        -0.5047 
     32 CA         25.4152   20.7973   -2.3995 C.3       2 UNK         0.0288 
     33 CB         25.3858   19.6248   -3.3939 C.3       2 UNK        -0.2113 
     34 N          26.2768   20.4435   -1.2624 N.am      2 UNK        -0.4145 
     35 C          26.4221   21.1787   -0.1495 C.2       1 UNK         0.5006 
     36 O          25.8619   22.2645    0.0268 O.2       1 UNK        -0.5103 
     37 C          28.8326   29.0506    1.4352 C.2       5 UNK         0.5055 
     38 O          28.0755   29.7214    0.7278 O.2       5 UNK        -0.5220 
     39 N          30.0989   29.3857    1.7122 N.am      6 UNK        -0.4450 
     40 CA         30.7010   30.6873    1.4226 C.3       6 UNK         0.0367 
     41 CB         32.2232   30.5756    1.6125 C.3       6 UNK        -0.1929 
     42 C          30.1258   31.7791    2.3436 C.2       6 UNK         0.5070 
     43 O          29.5517   31.4606    3.3897 O.2       6 UNK        -0.5237 
     44 N          30.3233   33.0483    1.9614 N.am      7 UNK        -0.4739 
     45 CA         29.9193   34.2340    2.7271 C.3       7 UNK         0.0276 
     46 CB         30.3523   35.5011    1.9719 C.3       7 UNK        -0.1927 
     47 C          30.5083   34.2181    4.1481 C.2       7 UNK         0.5013 
     48 O          31.7304   34.1501    4.2920 O.2       7 UNK        -0.5193 
     49 N          29.6269   34.1939    5.1593 N.am      8 UNK        -0.4253 
     50 CA         29.9297   34.0414    6.5918 C.3       8 UNK         0.0242 
     51 CB         30.6194   35.3134    7.1307 C.3       8 UNK        -0.2000 
     52 C          30.7195   32.7572    6.9390 C.2       8 UNK         0.4948 
     53 O          31.3964   32.7241    7.9679 O.2       8 UNK        -0.5275 
     54 N          30.6401   31.7375    6.0673 N.am      9 UNK        -0.4246 
     55 CA         31.4156   30.4926    6.0726 C.3       9 UNK         0.0261 
     56 CB         31.0410   29.6041    7.2774 C.3       9 UNK        -0.1959 
     57 C          32.9379   30.7077    5.9301 C.2       9 UNK         0.5033 
     58 O          33.7123   29.8505    6.3599 O.2       9 UNK        -0.5390 
     59 N          33.3592   31.8206    5.3080 N.am      10 UNK        -0.4215 
     60 CA         34.7605   32.1227    5.0082 C.3       10 UNK         0.0240 
     61 CB         34.9377   33.6472    4.8820 C.3       10 UNK        -0.1982 
     62 C          35.2074   31.3683    3.7437 C.2       10 UNK         0.4970 
     63 O          35.3360   31.9728    2.6776 O.2       10 UNK        -0.4916 
     64 N          35.3794   30.0485    3.8830 N.am      11 UNK        -0.4279 
     65 CA         35.7768   29.1122    2.8213 C.3       11 UNK         0.1003 
     66 C          37.1272   29.4796    2.1446 C.2       11 UNK         0.5709 
     67 N          37.2423   29.2827    0.8381 N.am      11 UNK        -0.7358 
     68 O          38.0814   29.8944    2.8008 O.2       11 UNK        -0.4999 
     69 C69        35.8236   27.6485    3.3349 C.3       12 UNK        -0.0954 
     70 S70        34.2990   27.0950    4.1688 S.3       12 UNK        -0.2268 
     71 C71        33.2251   26.7356    2.7464 C.3       12 UNK         0.0203 
     72 H72        25.7977   20.6446    5.1212 H         1 UNK         0.0888 
     73 H73        26.4277   22.1659    4.4858 H         1 UNK         0.0888 
     74 H74        24.7179   21.7737    4.2975 H         1 UNK         0.0888 
     75 H75        27.5486   21.9119    2.5644 H         1 UNK         0.3017 
     76 H76        27.2920   19.5407    0.9115 H         1 UNK         0.0873 
     77 H77        29.5288   20.3282    1.1717 H         1 UNK         0.0745 
     78 H78        29.1010   20.6893   -0.4653 H         1 UNK         0.0745 
     79 H79        29.8940   21.9221    3.0391 H         1 UNK         0.0705 
     80 H80        31.3193   22.0942    2.0438 H         1 UNK         0.0705 
     81 H81        32.4590   24.2750    1.8584 H         1 UNK         0.1334 
     82 H82        31.2575   27.4187    4.5221 H         1 UNK         0.1417 
     83 H83        28.8415   23.8979    4.1252 H         1 UNK         0.1562 
     84 H84        29.3058   27.1713    5.9116 H         1 UNK         0.0748 
     85 H85        28.7192   25.5498    6.1830 H         1 UNK         0.0748 
     86 H86        28.6087   28.6955    4.1190 H         1 UNK         0.0940 
     87 H87        26.9802   28.8214    3.5234 H         1 UNK         0.0940 
     88 H88        29.1609   27.0958    2.2219 H         1 UNK         0.0703 
     89 H89        26.3511   27.1383    1.7261 H         1 UNK         0.3081 
     90 H90        25.8392   25.1444    0.3824 H         1 UNK         0.0719 
     91 H91        25.6977   27.4596   -1.6261 H         1 UNK         0.0809 
     92 H92        24.4317   26.2504   -1.4127 H         1 UNK         0.0809 
     93 H93        24.8472   27.3353   -0.0984 H         1 UNK         0.0809 
     94 H94        26.6023   23.7976   -1.1426 H         1 UNK         0.2990 
     95 H95        27.2798   23.9123   -4.5144 H         1 UNK         0.0690 
     96 H96        29.5039   22.8462   -4.1411 H         1 UNK         0.0788 
     97 H97        29.5719   23.5212   -2.5107 H         1 UNK         0.0788 
     98 H98        29.6062   24.5836   -3.9101 H         1 UNK         0.0788 
     99 H99        27.7236   21.9058   -2.4812 H         1 UNK         0.2993 
    100 H100       24.4045   20.9437   -2.0120 H         1 UNK         0.0949 
    101 H101       24.7303   19.8447   -4.2380 H         1 UNK         0.0767 
    102 H102       26.3766   19.4124   -3.7977 H         1 UNK         0.0767 
    103 H103       25.0104   18.7149   -2.9249 H         1 UNK         0.0767 
    104 H104       26.7753   19.5677   -1.3357 H         1 UNK         0.3013 
    105 H105       30.6287   28.7784    2.3175 H         1 UNK         0.3121 
    106 H106       30.4847   30.9534    0.3856 H         1 UNK         0.0774 
    107 H107       32.4838   30.2921    2.6329 H         1 UNK         0.0815 
    108 H108       32.7198   31.5245    1.4048 H         1 UNK         0.0815 
    109 H109       32.6538   29.8366    0.9369 H         1 UNK         0.0815 
    110 H110       30.8315   33.2218    1.1061 H         1 UNK         0.2987 
    111 H111       28.8292   34.2289    2.7921 H         1 UNK         0.0949 
    112 H112       31.4349   35.5446    1.8442 H         1 UNK         0.0806 
    113 H113       29.8944   35.5526    0.9839 H         1 UNK         0.0806 
    114 H114       30.0527   36.3992    2.5138 H         1 UNK         0.0806 
    115 H115       28.6426   34.2133    4.9286 H         1 UNK         0.3010 
    116 H116       28.9684   33.9457    7.0989 H         1 UNK         0.0829 
    117 H117       31.6206   35.4359    6.7159 H         1 UNK         0.0813 
    118 H118       30.0454   36.2085    6.8917 H         1 UNK         0.0813 
    119 H119       30.7202   35.2770    8.2162 H         1 UNK         0.0813 
    120 H120       30.0645   31.8636    5.2378 H         1 UNK         0.3038 
    121 H121       31.1138   29.9567    5.1719 H         1 UNK         0.0769 
    122 H122       31.3735   30.0397    8.2199 H         1 UNK         0.0811 
    123 H123       31.5019   28.6189    7.1955 H         1 UNK         0.0811 
    124 H124       29.9635   29.4519    7.3383 H         1 UNK         0.0811 
    125 H125       32.6768   32.4977    4.9771 H         1 UNK         0.3204 
    126 H126       35.3865   31.7881    5.8384 H         1 UNK         0.0748 
    127 H127       35.9844   33.9040    4.7143 H         1 UNK         0.0771 
    128 H128       34.3657   34.0567    4.0487 H         1 UNK         0.0771 
    129 H129       34.6174   34.1599    5.7892 H         1 UNK         0.0771 
    130 H130       35.1801   29.6361    4.7869 H         1 UNK         0.2980 
    131 H131       34.9997   29.1741    2.0577 H         1 UNK         0.0545 
    132 H132       38.1171   29.5000    0.3867 H         1 UNK         0.3459 
    133 H133       36.4724   28.9298    0.2916 H         1 UNK         0.3459 
    134 H134       36.0390   26.9606    2.5152 H         1 UNK         0.0616 
    135 H135       36.6412   27.5286    4.0484 H         1 UNK         0.0616 
    136 H136       32.9108   27.6724    2.2866 H         1 UNK         0.0634 
    137 H137       33.8002   26.1961    1.9923 H         1 UNK         0.0634 
@<TRIPOS>BOND
     1    1    2 1    
     2    1   72 1    
     3    1   73 1    
     4    1   74 1    
     5    2    3 2    
     6    2    4 am   BACKBONE|DICT|INTERRES
     7    4    5 1    
     8    4   75 1    
     9    5    6 1    
    10    5   35 1    
    11    5   76 1    
    12    6    7 1    
    13    6   77 1    
    14    6   78 1    
    15    7    8 1    
    16    8    9 1    
    17    8   79 1    
    18    8   80 1    
    19    9   10 ar   
    20    9   14 ar   
    21   10   11 ar   
    22   10   81 1    
    23   11   12 ar   
    24   11   71 1    
    25   12   13 ar   
    26   12   82 1    
    27   13   14 ar   
    28   13   15 1    
    29   14   83 1    
    30   15   16 1    
    31   15   84 1    
    32   15   85 1    
    33   16   17 1    
    34   17   18 1    
    35   17   86 1    
    36   17   87 1    
    37   18   19 1    
    38   18   37 1    
    39   18   88 1    
    40   19   20 am   BACKBONE|DICT|INTERRES
    41   19   89 1    
    42   20   21 2    
    43   20   22 1    
    44   22   23 1    
    45   22   24 1    
    46   22   90 1    
    47   23   91 1    
    48   23   92 1    
    49   23   93 1    
    50   24   25 am   BACKBONE|DICT|INTERRES
    51   24   94 1    
    52   25   26 2    
    53   25   27 1    
    54   27   28 1    
    55   27   29 1    
    56   27   95 1    
    57   28   96 1    
    58   28   97 1    
    59   28   98 1    
    60   29   30 am   BACKBONE|DICT|INTERRES
    61   29   99 1    
    62   30   31 2    
    63   30   32 1    
    64   32   33 1    
    65   32   34 1    
    66   32  100 1    
    67   33  101 1    
    68   33  102 1    
    69   33  103 1    
    70   34   35 am   BACKBONE|DICT|INTERRES
    71   34  104 1    
    72   35   36 2    
    73   37   38 2    
    74   37   39 am   BACKBONE|DICT|INTERRES
    75   39   40 1    
    76   39  105 1    
    77   40   41 1    
    78   40   42 1    
    79   40  106 1    
    80   41  107 1    
    81   41  108 1    
    82   41  109 1    
    83   42   43 2    
    84   42   44 am   BACKBONE|DICT|INTERRES
    85   44   45 1    
    86   44  110 1    
    87   45   46 1    
    88   45   47 1    
    89   45  111 1    
    90   46  112 1    
    91   46  113 1    
    92   46  114 1    
    93   47   48 2    
    94   47   49 am   BACKBONE|DICT|INTERRES
    95   49   50 1    
    96   49  115 1    
    97   50   51 1    
    98   50   52 1    
    99   50  116 1    
   100   51  117 1    
   101   51  118 1    
   102   51  119 1    
   103   52   53 2    
   104   52   54 am   BACKBONE|DICT|INTERRES
   105   54   55 1    
   106   54  120 1    
   107   55   56 1    
   108   55   57 1    
   109   55  121 1    
   110   56  122 1    
   111   56  123 1    
   112   56  124 1    
   113   57   58 2    
   114   57   59 am   BACKBONE|DICT|INTERRES
   115   59   60 1    
   116   59  125 1    
   117   60   61 1    
   118   60   62 1    
   119   60  126 1    
   120   61  127 1    
   121   61  128 1    
   122   61  129 1    
   123   62   63 2    
   124   62   64 am   BACKBONE|DICT|INTERRES
   125   64   65 1    
   126   64  130 1    
   127   65   66 1    
   128   65   69 1    
   129   65  131 1    
   130   66   67 am   BACKBONE|DICT|INTERRES
   131   66   68 2    
   132   67  132 1    
   133   67  133 1    
   134   69   70 1    
   135   69  134 1    
   136   69  135 1    
   137   70   71 1    
   138   71  136 1    
   139   71  137 1    
@<TRIPOS>SUBSTRUCTURE
     1 UNK         1 GROUP             0       ****    0 ROOT    
