@<TRIPOS>MOLECULE
3R136
137   139    1
SMALL
USER_CHARGES


@<TRIPOS>ATOM
      1 CA         25.1145   23.6829   -3.7122 C.3       0 UNK        -0.1979 
      2 C          26.2374   23.8728   -2.7051 C.2       0 UNK         0.4864 
      3 O          26.3090   24.9190   -2.0599 O.2       0 UNK        -0.5359 
      4 N          27.1083   22.8654   -2.5475 N.am      1 UNK        -0.4318 
      5 CA         28.2660   22.8832   -1.6426 C.3       1 UNK         0.0824 
      6 C6         29.1890   21.6586   -1.9024 C.3       12 UNK        -0.0944 
      7 S7         30.5489   21.3536   -0.7191 S.3       12 UNK        -0.2672 
      8 C8         31.5681   22.8692   -0.8516 C.3       12 UNK         0.0333 
      9 C9         32.0871   23.4280    0.4778 C.ar      12 UNK        -0.0807 
     10 C10        33.0000   24.4884    0.4466 C.ar      12 UNK        -0.0894 
     11 C11        33.4991   25.0443    1.6302 C.ar      12 UNK        -0.0804 
     12 C12        33.0959   24.5162    2.8591 C.ar      12 UNK        -0.0824 
     13 C13        32.1501   23.4910    2.9111 C.ar      12 UNK        -0.0762 
     14 C14        31.6584   22.9469    1.7227 C.ar      12 UNK        -0.0782 
     15 C15        31.6150   23.0047    4.2501 C.3       12 UNK         0.0230 
     16 S16        30.6503   24.2910    5.1131 S.3       12 UNK        -0.2608 
     17 C17        29.4616   24.8376    3.8346 C.3       12 UNK        -0.0989 
     18 CA         29.8607   26.1922    3.1859 C.3       5 UNK         0.0716 
     19 N          29.2750   26.3367    1.8485 N.am      5 UNK        -0.4135 
     20 C          29.3925   27.4004    1.0385 C.2       4 UNK         0.5031 
     21 O          30.0655   28.3989    1.2888 O.2       4 UNK        -0.5229 
     22 CA         28.5397   27.3895   -0.2399 C.3       4 UNK         0.0329 
     23 CB         29.3000   26.6966   -1.3794 C.3       4 UNK        -0.2001 
     24 N          27.2171   26.7760   -0.0580 N.am      4 UNK        -0.4303 
     25 C          26.3049   27.1513    0.8548 C.2       3 UNK         0.5044 
     26 O          26.4720   28.0706    1.6572 O.2       3 UNK        -0.5152 
     27 CA         25.0102   26.3305    0.9230 C.3       3 UNK         0.0319 
     28 CB         24.0331   26.7443   -0.1885 C.3       3 UNK        -0.2001 
     29 N          25.2916   24.8968    0.8418 N.am      3 UNK        -0.4354 
     30 C          25.7315   24.1594    1.8730 C.2       2 UNK         0.4964 
     31 O          25.8511   24.5898    3.0203 O.2       2 UNK        -0.5047 
     32 CA         26.1314   22.7010    1.5765 C.3       2 UNK         0.0288 
     33 CB         24.9213   21.7668    1.7340 C.3       2 UNK        -0.2113 
     34 N          26.7234   22.5116    0.2485 N.am      2 UNK        -0.4145 
     35 C          27.8641   23.0869   -0.1612 C.2       1 UNK         0.5006 
     36 O          28.5474   23.8167    0.5587 O.2       1 UNK        -0.5103 
     37 C          29.5520   27.3767    4.1304 C.2       5 UNK         0.5055 
     38 O          30.4022   27.7295    4.9463 O.2       5 UNK        -0.5220 
     39 N          28.3616   27.9787    3.9974 N.am      6 UNK        -0.4450 
     40 CA         27.9774   29.1971    4.7048 C.3       6 UNK         0.0367 
     41 CB         26.4880   29.1239    5.0812 C.3       6 UNK        -0.1929 
     42 C          28.2630   30.4372    3.8457 C.2       6 UNK         0.5070 
     43 O          28.8951   31.3776    4.3295 O.2       6 UNK        -0.5237 
     44 N          27.7761   30.4249    2.5958 N.am      7 UNK        -0.4739 
     45 CA         27.7422   31.5789    1.6935 C.3       7 UNK         0.0276 
     46 CB         26.9324   31.2288    0.4358 C.3       7 UNK        -0.1927 
     47 C          29.1172   32.1503    1.3144 C.2       7 UNK         0.5013 
     48 O          29.2360   33.3702    1.1874 O.2       7 UNK        -0.5193 
     49 N          30.1421   31.2972    1.1769 N.am      8 UNK        -0.4253 
     50 CA         31.5216   31.7057    0.8888 C.3       8 UNK         0.0242 
     51 CB         32.2524   30.5618    0.1637 C.3       8 UNK        -0.2000 
     52 C          32.2511   32.1711    2.1649 C.2       8 UNK         0.4948 
     53 O          33.3021   31.6285    2.5107 O.2       8 UNK        -0.5275 
     54 N          31.6600   33.1582    2.8561 N.am      9 UNK        -0.4246 
     55 CA         32.1286   33.8017    4.0918 C.3       9 UNK         0.0261 
     56 CB         33.3209   34.7313    3.7812 C.3       9 UNK        -0.1959 
     57 C          32.4344   32.8048    5.2296 C.2       9 UNK         0.5033 
     58 O          33.4187   32.9809    5.9496 O.2       9 UNK        -0.5390 
     59 N          31.6002   31.7603    5.3441 N.am      10 UNK        -0.4215 
     60 CA         31.7215   30.6118    6.2507 C.3       10 UNK         0.0240 
     61 CB         31.6042   31.0573    7.7246 C.3       10 UNK        -0.1982 
     62 C          32.9523   29.7064    6.0070 C.2       10 UNK         0.4970 
     63 O          33.2250   28.8497    6.8512 O.2       10 UNK        -0.4916 
     64 N          33.6628   29.8847    4.8804 N.am      11 UNK        -0.4279 
     65 CA         34.8840   29.1555    4.4933 C.3       11 UNK         0.1003 
     66 C          36.0472   29.2782    5.5304 C.2       11 UNK         0.5709 
     67 N          37.0474   28.4038    5.4867 N.am      11 UNK        -0.7358 
     68 O          36.0962   30.2052    6.3407 O.2       11 UNK        -0.4999 
     69 C69        34.5681   27.7004    4.0262 C.3       12 UNK        -0.0954 
     70 S70        33.7322   27.6982    2.4033 S.3       12 UNK        -0.2268 
     71 C71        34.4488   26.2332    1.5820 C.3       12 UNK         0.0203 
     72 H72        24.1485   23.7679   -3.2158 H         1 UNK         0.0888 
     73 H73        25.1705   24.4514   -4.4821 H         1 UNK         0.0888 
     74 H74        25.1627   22.7095   -4.1995 H         1 UNK         0.0888 
     75 H75        26.9970   22.0298   -3.1046 H         1 UNK         0.3017 
     76 H76        28.8306   23.7713   -1.9221 H         1 UNK         0.0873 
     77 H77        29.6233   21.7344   -2.9006 H         1 UNK         0.0745 
     78 H78        28.5869   20.7485   -1.9133 H         1 UNK         0.0745 
     79 H79        31.0070   23.6563   -1.3504 H         1 UNK         0.0705 
     80 H80        32.4163   22.6458   -1.4991 H         1 UNK         0.0705 
     81 H81        33.3141   24.8912   -0.5068 H         1 UNK         0.1334 
     82 H82        33.4674   24.9466    3.7786 H         1 UNK         0.1417 
     83 H83        30.9183   22.1629    1.7830 H         1 UNK         0.1562 
     84 H84        32.4490   22.7004    4.8839 H         1 UNK         0.0748 
     85 H85        30.9881   22.1208    4.1223 H         1 UNK         0.0748 
     86 H86        28.4642   24.8922    4.2758 H         1 UNK         0.0940 
     87 H87        29.3926   24.0561    3.0776 H         1 UNK         0.0940 
     88 H88        30.9390   26.2003    3.0240 H         1 UNK         0.0703 
     89 H89        28.7655   25.5322    1.4940 H         1 UNK         0.3081 
     90 H90        28.3702   28.4247   -0.5353 H         1 UNK         0.0719 
     91 H91        28.6877   26.6013   -2.2762 H         1 UNK         0.0809 
     92 H92        30.1891   27.2675   -1.6494 H         1 UNK         0.0809 
     93 H93        29.6375   25.7040   -1.0867 H         1 UNK         0.0809 
     94 H94        26.9669   26.0317   -0.7058 H         1 UNK         0.2990 
     95 H95        24.5312   26.5416    1.8816 H         1 UNK         0.0690 
     96 H96        23.7898   27.8051   -0.1141 H         1 UNK         0.0788 
     97 H97        23.0964   26.1919   -0.1171 H         1 UNK         0.0788 
     98 H98        24.4459   26.5759   -1.1831 H         1 UNK         0.0788 
     99 H99        25.2807   24.4874   -0.0828 H         1 UNK         0.2993 
    100 H100       26.8837   22.4161    2.3155 H         1 UNK         0.0949 
    101 H101       24.1437   21.9845    1.0009 H         1 UNK         0.0767 
    102 H102       25.2092   20.7215    1.6196 H         1 UNK         0.0767 
    103 H103       24.4747   21.8713    2.7239 H         1 UNK         0.0767 
    104 H104       26.2118   21.9373   -0.4056 H         1 UNK         0.3013 
    105 H105       27.7372   27.6705    3.2603 H         1 UNK         0.3121 
    106 H106       28.5460   29.2904    5.6321 H         1 UNK         0.0774 
    107 H107       25.8476   29.0160    4.2049 H         1 UNK         0.0815 
    108 H108       26.1744   30.0277    5.6053 H         1 UNK         0.0815 
    109 H109       26.2904   28.2807    5.7432 H         1 UNK         0.0815 
    110 H110       27.2895   29.5905    2.2738 H         1 UNK         0.2987 
    111 H111       27.2078   32.3721    2.2209 H         1 UNK         0.0949 
    112 H112       27.4116   30.4441   -0.1473 H         1 UNK         0.0806 
    113 H113       25.9275   30.8909    0.6901 H         1 UNK         0.0806 
    114 H114       26.8270   32.0982   -0.2146 H         1 UNK         0.0806 
    115 H115       29.9876   30.3017    1.3274 H         1 UNK         0.3010 
    116 H116       31.5038   32.5578    0.2059 H         1 UNK         0.0829 
    117 H117       31.7349   30.2757   -0.7518 H         1 UNK         0.0813 
    118 H118       33.2660   30.8552   -0.1116 H         1 UNK         0.0813 
    119 H119       32.3299   29.6761    0.7928 H         1 UNK         0.0813 
    120 H120       30.7802   33.5033    2.4828 H         1 UNK         0.3038 
    121 H121       31.3052   34.4231    4.4471 H         1 UNK         0.0769 
    122 H122       34.1954   34.1671    3.4548 H         1 UNK         0.0811 
    123 H123       33.6127   35.3048    4.6620 H         1 UNK         0.0811 
    124 H124       33.0727   35.4479    2.9985 H         1 UNK         0.0811 
    125 H125       30.7868   31.7289    4.7332 H         1 UNK         0.3204 
    126 H126       30.8523   29.9917    6.0393 H         1 UNK         0.0748 
    127 H127       31.5123   30.1962    8.3875 H         1 UNK         0.0771 
    128 H128       32.4787   31.6223    8.0482 H         1 UNK         0.0771 
    129 H129       30.7231   31.6793    7.8822 H         1 UNK         0.0771 
    130 H130       33.3836   30.6114    4.2298 H         1 UNK         0.2980 
    131 H131       35.2659   29.7013    3.6300 H         1 UNK         0.0545 
    132 H132       37.8081   28.5025    6.1404 H         1 UNK         0.3459 
    133 H133       37.0599   27.6518    4.8133 H         1 UNK         0.3459 
    134 H134       35.4749   27.1055    3.9329 H         1 UNK         0.0616 
    135 H135       33.9413   27.1819    4.7524 H         1 UNK         0.0616 
    136 H136       34.6644   26.5035    0.5473 H         1 UNK         0.0634 
    137 H137       35.4055   25.9567    2.0253 H         1 UNK         0.0634 
@<TRIPOS>BOND
     1    1    2 1    
     2    1   72 1    
     3    1   73 1    
     4    1   74 1    
     5    2    3 2    
     6    2    4 am   BACKBONE|DICT|INTERRES
     7    4    5 1    
     8    4   75 1    
     9    5    6 1    
    10    5   35 1    
    11    5   76 1    
    12    6    7 1    
    13    6   77 1    
    14    6   78 1    
    15    7    8 1    
    16    8    9 1    
    17    8   79 1    
    18    8   80 1    
    19    9   10 ar   
    20    9   14 ar   
    21   10   11 ar   
    22   10   81 1    
    23   11   12 ar   
    24   11   71 1    
    25   12   13 ar   
    26   12   82 1    
    27   13   14 ar   
    28   13   15 1    
    29   14   83 1    
    30   15   16 1    
    31   15   84 1    
    32   15   85 1    
    33   16   17 1    
    34   17   18 1    
    35   17   86 1    
    36   17   87 1    
    37   18   19 1    
    38   18   37 1    
    39   18   88 1    
    40   19   20 am   BACKBONE|DICT|INTERRES
    41   19   89 1    
    42   20   21 2    
    43   20   22 1    
    44   22   23 1    
    45   22   24 1    
    46   22   90 1    
    47   23   91 1    
    48   23   92 1    
    49   23   93 1    
    50   24   25 am   BACKBONE|DICT|INTERRES
    51   24   94 1    
    52   25   26 2    
    53   25   27 1    
    54   27   28 1    
    55   27   29 1    
    56   27   95 1    
    57   28   96 1    
    58   28   97 1    
    59   28   98 1    
    60   29   30 am   BACKBONE|DICT|INTERRES
    61   29   99 1    
    62   30   31 2    
    63   30   32 1    
    64   32   33 1    
    65   32   34 1    
    66   32  100 1    
    67   33  101 1    
    68   33  102 1    
    69   33  103 1    
    70   34   35 am   BACKBONE|DICT|INTERRES
    71   34  104 1    
    72   35   36 2    
    73   37   38 2    
    74   37   39 am   BACKBONE|DICT|INTERRES
    75   39   40 1    
    76   39  105 1    
    77   40   41 1    
    78   40   42 1    
    79   40  106 1    
    80   41  107 1    
    81   41  108 1    
    82   41  109 1    
    83   42   43 2    
    84   42   44 am   BACKBONE|DICT|INTERRES
    85   44   45 1    
    86   44  110 1    
    87   45   46 1    
    88   45   47 1    
    89   45  111 1    
    90   46  112 1    
    91   46  113 1    
    92   46  114 1    
    93   47   48 2    
    94   47   49 am   BACKBONE|DICT|INTERRES
    95   49   50 1    
    96   49  115 1    
    97   50   51 1    
    98   50   52 1    
    99   50  116 1    
   100   51  117 1    
   101   51  118 1    
   102   51  119 1    
   103   52   53 2    
   104   52   54 am   BACKBONE|DICT|INTERRES
   105   54   55 1    
   106   54  120 1    
   107   55   56 1    
   108   55   57 1    
   109   55  121 1    
   110   56  122 1    
   111   56  123 1    
   112   56  124 1    
   113   57   58 2    
   114   57   59 am   BACKBONE|DICT|INTERRES
   115   59   60 1    
   116   59  125 1    
   117   60   61 1    
   118   60   62 1    
   119   60  126 1    
   120   61  127 1    
   121   61  128 1    
   122   61  129 1    
   123   62   63 2    
   124   62   64 am   BACKBONE|DICT|INTERRES
   125   64   65 1    
   126   64  130 1    
   127   65   66 1    
   128   65   69 1    
   129   65  131 1    
   130   66   67 am   BACKBONE|DICT|INTERRES
   131   66   68 2    
   132   67  132 1    
   133   67  133 1    
   134   69   70 1    
   135   69  134 1    
   136   69  135 1    
   137   70   71 1    
   138   71  136 1    
   139   71  137 1    
@<TRIPOS>SUBSTRUCTURE
     1 UNK         1 GROUP             0       ****    0 ROOT    
