@<TRIPOS>MOLECULE
3R136
137   139    1
SMALL
USER_CHARGES


@<TRIPOS>ATOM
      1 CA         25.5175   19.9669    2.4779 C.3       0 UNK        -0.1979 
      2 C          26.1284   21.2692    1.9838 C.2       0 UNK         0.4864 
      3 O          25.4713   22.3095    2.0398 O.2       0 UNK        -0.5359 
      4 N          27.3712   21.2144    1.4794 N.am      1 UNK        -0.4318 
      5 CA         28.1818   22.3547    1.0137 C.3       1 UNK         0.0824 
      6 C6         28.6515   23.2773    2.1721 C.3       12 UNK        -0.0944 
      7 S7         29.4885   22.3851    3.5307 S.3       12 UNK        -0.2672 
      8 C8         31.1346   22.0286    2.8339 C.3       12 UNK         0.0333 
      9 C9         31.8659   23.2867    2.3902 C.ar      12 UNK        -0.0807 
     10 C10        32.3645   24.1846    3.3373 C.ar      12 UNK        -0.0894 
     11 C11        33.0201   25.3508    2.9324 C.ar      12 UNK        -0.0804 
     12 C12        33.1865   25.6115    1.5683 C.ar      12 UNK        -0.0824 
     13 C13        32.6993   24.7141    0.6122 C.ar      12 UNK        -0.0762 
     14 C14        32.0434   23.5525    1.0301 C.ar      12 UNK        -0.0782 
     15 C15        32.8848   24.9849   -0.8751 C.3       12 UNK         0.0230 
     16 S16        31.9477   26.4333   -1.4623 S.3       12 UNK        -0.2608 
     17 C17        30.2318   26.0466   -0.9662 C.3       12 UNK        -0.0989 
     18 CA         29.5143   27.2726   -0.3494 C.3       5 UNK         0.0716 
     19 N          28.0544   27.1252   -0.3954 N.am      5 UNK        -0.4135 
     20 C          27.2097   28.1676   -0.3667 C.2       4 UNK         0.5031 
     21 O          27.5884   29.3342   -0.2619 O.2       4 UNK        -0.5229 
     22 CA         25.7013   27.9152   -0.5094 C.3       4 UNK         0.0329 
     23 CB         25.2550   28.2063   -1.9566 C.3       4 UNK        -0.2001 
     24 N          25.2580   26.5744   -0.1133 N.am      4 UNK        -0.4303 
     25 C          23.9924   26.2869    0.2344 C.2       3 UNK         0.5044 
     26 O          23.1224   27.1470    0.3881 O.2       3 UNK        -0.5152 
     27 CA         23.6184   24.8003    0.4317 C.3       3 UNK         0.0319 
     28 CB         22.1385   24.5088    0.1038 C.3       3 UNK        -0.2001 
     29 N          24.4992   23.8710   -0.2837 N.am      3 UNK        -0.4354 
     30 C          24.7489   23.8221   -1.6043 C.2       2 UNK         0.4964 
     31 O          24.1295   24.4829   -2.4388 O.2       2 UNK        -0.5047 
     32 CA         25.9096   22.9168   -2.0789 C.3       2 UNK         0.0288 
     33 CB         26.7576   23.6044   -3.1713 C.3       2 UNK        -0.2113 
     34 N          26.7783   22.4210   -0.9996 N.am      2 UNK        -0.4145 
     35 C          27.4909   23.1477   -0.1220 C.2       1 UNK         0.5006 
     36 O          27.5435   24.3821   -0.1472 O.2       1 UNK        -0.5103 
     37 C          30.0165   27.6144    1.0704 C.2       5 UNK         0.5055 
     38 O          30.9581   28.3959    1.2089 O.2       5 UNK        -0.5220 
     39 N          29.3529   27.0765    2.1036 N.am      6 UNK        -0.4450 
     40 CA         29.6124   27.3885    3.5108 C.3       6 UNK         0.0367 
     41 CB         29.2162   26.1802    4.3775 C.3       6 UNK        -0.1929 
     42 C          28.8799   28.6798    3.9218 C.2       6 UNK         0.5070 
     43 O          27.9563   28.6378    4.7364 O.2       6 UNK        -0.5237 
     44 N          29.2847   29.8032    3.3246 N.am      7 UNK        -0.4739 
     45 CA         28.7365   31.1405    3.5398 C.3       7 UNK         0.0276 
     46 CB         27.4771   31.3288    2.6718 C.3       7 UNK        -0.1927 
     47 C          29.8127   32.1815    3.2020 C.2       7 UNK         0.5013 
     48 O          30.8964   31.8132    2.7438 O.2       7 UNK        -0.5193 
     49 N          29.5037   33.4649    3.4432 N.am      8 UNK        -0.4253 
     50 CA         30.3311   34.6423    3.1258 C.3       8 UNK         0.0242 
     51 CB         30.3662   34.8713    1.5992 C.3       8 UNK        -0.2000 
     52 C          31.7433   34.6029    3.7500 C.2       8 UNK         0.4948 
     53 O          32.7065   35.0540    3.1277 O.2       8 UNK        -0.5275 
     54 N          31.8311   34.0432    4.9660 N.am      9 UNK        -0.4246 
     55 CA         33.0432   33.8129    5.7618 C.3       9 UNK         0.0261 
     56 CB         33.7237   35.1461    6.1431 C.3       9 UNK        -0.1959 
     57 C          34.0329   32.7958    5.1523 C.2       9 UNK         0.5033 
     58 O          35.1939   32.7700    5.5697 O.2       9 UNK        -0.5390 
     59 N          33.5774   31.9454    4.2171 N.am      10 UNK        -0.4215 
     60 CA         34.3516   30.8123    3.7006 C.3       10 UNK         0.0240 
     61 CB         33.6089   30.1646    2.5227 C.3       10 UNK        -0.1982 
     62 C          34.6139   29.7721    4.8024 C.2       10 UNK         0.4970 
     63 O          33.7436   29.5476    5.6471 O.2       10 UNK        -0.4916 
     64 N          35.8060   29.1657    4.7623 N.am      11 UNK        -0.4279 
     65 CA         36.3364   28.2260    5.7676 C.3       11 UNK         0.1003 
     66 C          36.6748   28.8745    7.1472 C.2       11 UNK         0.5709 
     67 N          36.6427   30.1944    7.2970 N.am      11 UNK        -0.7358 
     68 O          37.0128   28.1702    8.0961 O.2       11 UNK        -0.4999 
     69 C69        35.4904   26.9269    5.9203 C.3       12 UNK        -0.0954 
     70 S70        35.2848   26.0004    4.3617 S.3       12 UNK        -0.2268 
     71 C71        33.5383   26.3280    3.9734 C.3       12 UNK         0.0203 
     72 H72        26.1981   19.1244    2.3567 H         1 UNK         0.0888 
     73 H73        25.2663   20.0503    3.5349 H         1 UNK         0.0888 
     74 H74        24.6036   19.7481    1.9263 H         1 UNK         0.0888 
     75 H75        27.8444   20.3214    1.4608 H         1 UNK         0.3017 
     76 H76        29.0736   21.9246    0.5566 H         1 UNK         0.0873 
     77 H77        29.3152   24.0600    1.8036 H         1 UNK         0.0745 
     78 H78        27.7955   23.7978    2.6053 H         1 UNK         0.0745 
     79 H79        31.7310   21.5154    3.5895 H         1 UNK         0.0705 
     80 H80        31.0283   21.3268    2.0056 H         1 UNK         0.0705 
     81 H81        32.2299   23.9793    4.3906 H         1 UNK         0.1334 
     82 H82        33.6881   26.5152    1.2498 H         1 UNK         0.1417 
     83 H83        31.6644   22.8564    0.2943 H         1 UNK         0.1562 
     84 H84        32.5925   24.1169   -1.4681 H         1 UNK         0.0748 
     85 H85        33.9443   25.1473   -1.0774 H         1 UNK         0.0748 
     86 H86        30.1958   25.1948   -0.2877 H         1 UNK         0.0940 
     87 H87        29.7081   25.7243   -1.8678 H         1 UNK         0.0940 
     88 H88        29.7612   28.1322   -0.9776 H         1 UNK         0.0703 
     89 H89        27.7135   26.1695   -0.4567 H         1 UNK         0.3081 
     90 H90        25.2194   28.6417    0.1490 H         1 UNK         0.0719 
     91 H91        25.6547   27.4688   -2.6538 H         1 UNK         0.0809 
     92 H92        24.1690   28.1982   -2.0503 H         1 UNK         0.0809 
     93 H93        25.5963   29.1888   -2.2858 H         1 UNK         0.0809 
     94 H94        25.9211   25.8129   -0.1888 H         1 UNK         0.2990 
     95 H95        23.7673   24.5945    1.4927 H         1 UNK         0.0690 
     96 H96        21.8980   23.4572    0.2600 H         1 UNK         0.0788 
     97 H97        21.8960   24.7594   -0.9293 H         1 UNK         0.0788 
     98 H98        21.4728   25.0892    0.7436 H         1 UNK         0.0788 
     99 H99        25.0439   23.2708    0.3292 H         1 UNK         0.2993 
    100 H100       25.4402   22.0380   -2.5237 H         1 UNK         0.0949 
    101 H101       27.5691   22.9593   -3.5083 H         1 UNK         0.0767 
    102 H102       26.1527   23.8426   -4.0471 H         1 UNK         0.0767 
    103 H103       27.1965   24.5381   -2.8181 H         1 UNK         0.0767 
    104 H104       26.7743   21.4184   -0.8702 H         1 UNK         0.3013 
    105 H105       28.5567   26.4883    1.9089 H         1 UNK         0.3121 
    106 H106       30.6820   27.5584    3.6540 H         1 UNK         0.0774 
    107 H107       29.3880   26.3848    5.4349 H         1 UNK         0.0815 
    108 H108       28.1634   25.9209    4.2605 H         1 UNK         0.0815 
    109 H109       29.8094   25.3039    4.1216 H         1 UNK         0.0815 
    110 H110       30.0651   29.7637    2.6738 H         1 UNK         0.2987 
    111 H111       28.4772   31.2553    4.5946 H         1 UNK         0.0949 
    112 H112       27.7163   31.2872    1.6085 H         1 UNK         0.0806 
    113 H113       26.7326   30.5586    2.8744 H         1 UNK         0.0806 
    114 H114       27.0007   32.2909    2.8616 H         1 UNK         0.0806 
    115 H115       28.5990   33.6681    3.8463 H         1 UNK         0.3010 
    116 H116       29.8303   35.5012    3.5753 H         1 UNK         0.0829 
    117 H117       29.3605   34.9249    1.1822 H         1 UNK         0.0813 
    118 H118       30.8670   35.8085    1.3530 H         1 UNK         0.0813 
    119 H119       30.9003   34.0717    1.0843 H         1 UNK         0.0813 
    120 H120       30.9736   33.7009    5.3774 H         1 UNK         0.3038 
    121 H121       32.6984   33.3535    6.6893 H         1 UNK         0.0769 
    122 H122       34.1754   35.6332    5.2786 H         1 UNK         0.0811 
    123 H123       34.5176   34.9860    6.8737 H         1 UNK         0.0811 
    124 H124       33.0133   35.8423    6.5888 H         1 UNK         0.0811 
    125 H125       32.6168   32.0180    3.8981 H         1 UNK         0.3204 
    126 H126       35.3065   31.1988    3.3380 H         1 UNK         0.0748 
    127 H127       34.1951   29.3575    2.0816 H         1 UNK         0.0771 
    128 H128       32.6561   29.7377    2.8382 H         1 UNK         0.0771 
    129 H129       33.4045   30.8871    1.7323 H         1 UNK         0.0771 
    130 H130       36.4529   29.4163    4.0286 H         1 UNK         0.2980 
    131 H131       37.3076   27.9227    5.3754 H         1 UNK         0.0545 
    132 H132       36.3553   30.7984    6.5410 H         1 UNK         0.3459 
    133 H133       36.8796   30.5909    8.1925 H         1 UNK         0.3459 
    134 H134       35.9766   26.2436    6.6185 H         1 UNK         0.0616 
    135 H135       34.5162   27.1458    6.3588 H         1 UNK         0.0616 
    136 H136       32.9360   26.2548    4.8802 H         1 UNK         0.0634 
    137 H137       33.4284   27.3500    3.6114 H         1 UNK         0.0634 
@<TRIPOS>BOND
     1    1    2 1    
     2    1   72 1    
     3    1   73 1    
     4    1   74 1    
     5    2    3 2    
     6    2    4 am   BACKBONE|DICT|INTERRES
     7    4    5 1    
     8    4   75 1    
     9    5    6 1    
    10    5   35 1    
    11    5   76 1    
    12    6    7 1    
    13    6   77 1    
    14    6   78 1    
    15    7    8 1    
    16    8    9 1    
    17    8   79 1    
    18    8   80 1    
    19    9   10 ar   
    20    9   14 ar   
    21   10   11 ar   
    22   10   81 1    
    23   11   12 ar   
    24   11   71 1    
    25   12   13 ar   
    26   12   82 1    
    27   13   14 ar   
    28   13   15 1    
    29   14   83 1    
    30   15   16 1    
    31   15   84 1    
    32   15   85 1    
    33   16   17 1    
    34   17   18 1    
    35   17   86 1    
    36   17   87 1    
    37   18   19 1    
    38   18   37 1    
    39   18   88 1    
    40   19   20 am   BACKBONE|DICT|INTERRES
    41   19   89 1    
    42   20   21 2    
    43   20   22 1    
    44   22   23 1    
    45   22   24 1    
    46   22   90 1    
    47   23   91 1    
    48   23   92 1    
    49   23   93 1    
    50   24   25 am   BACKBONE|DICT|INTERRES
    51   24   94 1    
    52   25   26 2    
    53   25   27 1    
    54   27   28 1    
    55   27   29 1    
    56   27   95 1    
    57   28   96 1    
    58   28   97 1    
    59   28   98 1    
    60   29   30 am   BACKBONE|DICT|INTERRES
    61   29   99 1    
    62   30   31 2    
    63   30   32 1    
    64   32   33 1    
    65   32   34 1    
    66   32  100 1    
    67   33  101 1    
    68   33  102 1    
    69   33  103 1    
    70   34   35 am   BACKBONE|DICT|INTERRES
    71   34  104 1    
    72   35   36 2    
    73   37   38 2    
    74   37   39 am   BACKBONE|DICT|INTERRES
    75   39   40 1    
    76   39  105 1    
    77   40   41 1    
    78   40   42 1    
    79   40  106 1    
    80   41  107 1    
    81   41  108 1    
    82   41  109 1    
    83   42   43 2    
    84   42   44 am   BACKBONE|DICT|INTERRES
    85   44   45 1    
    86   44  110 1    
    87   45   46 1    
    88   45   47 1    
    89   45  111 1    
    90   46  112 1    
    91   46  113 1    
    92   46  114 1    
    93   47   48 2    
    94   47   49 am   BACKBONE|DICT|INTERRES
    95   49   50 1    
    96   49  115 1    
    97   50   51 1    
    98   50   52 1    
    99   50  116 1    
   100   51  117 1    
   101   51  118 1    
   102   51  119 1    
   103   52   53 2    
   104   52   54 am   BACKBONE|DICT|INTERRES
   105   54   55 1    
   106   54  120 1    
   107   55   56 1    
   108   55   57 1    
   109   55  121 1    
   110   56  122 1    
   111   56  123 1    
   112   56  124 1    
   113   57   58 2    
   114   57   59 am   BACKBONE|DICT|INTERRES
   115   59   60 1    
   116   59  125 1    
   117   60   61 1    
   118   60   62 1    
   119   60  126 1    
   120   61  127 1    
   121   61  128 1    
   122   61  129 1    
   123   62   63 2    
   124   62   64 am   BACKBONE|DICT|INTERRES
   125   64   65 1    
   126   64  130 1    
   127   65   66 1    
   128   65   69 1    
   129   65  131 1    
   130   66   67 am   BACKBONE|DICT|INTERRES
   131   66   68 2    
   132   67  132 1    
   133   67  133 1    
   134   69   70 1    
   135   69  134 1    
   136   69  135 1    
   137   70   71 1    
   138   71  136 1    
   139   71  137 1    
@<TRIPOS>SUBSTRUCTURE
     1 UNK         1 GROUP             0       ****    0 ROOT    
