@<TRIPOS>MOLECULE
3R136
137   139    1
SMALL
USER_CHARGES


@<TRIPOS>ATOM
      1 CA         27.6095   18.3148    2.5934 C.3       0 UNK        -0.1979 
      2 C          27.3640   19.5785    1.7825 C.2       0 UNK         0.4864 
      3 O          26.2878   19.7342    1.2040 O.2       0 UNK        -0.5359 
      4 N          28.3546   20.4793    1.7347 N.am      1 UNK        -0.4318 
      5 CA         28.2924   21.7682    1.0338 C.3       1 UNK         0.0824 
      6 C6         29.6957   22.3876    0.8166 C.3       12 UNK        -0.0944 
      7 S7         30.7275   22.4465    2.3256 S.3       12 UNK        -0.2672 
      8 C8         32.3794   22.0900    1.6480 C.3       12 UNK         0.0333 
      9 C9         32.9832   23.3211    0.9891 C.ar      12 UNK        -0.0807 
     10 C10        33.7875   24.1865    1.7350 C.ar      12 UNK        -0.0894 
     11 C11        34.3388   25.3287    1.1473 C.ar      12 UNK        -0.0804 
     12 C12        34.0804   25.6025   -0.1995 C.ar      12 UNK        -0.0824 
     13 C13        33.2617   24.7540   -0.9511 C.ar      12 UNK        -0.0762 
     14 C14        32.7311   23.6047   -0.3565 C.ar      12 UNK        -0.0782 
     15 C15        32.9402   25.0882   -2.4011 C.3       12 UNK         0.0230 
     16 S16        31.7651   26.4757   -2.5409 S.3       12 UNK        -0.2608 
     17 C17        30.2320   25.7453   -1.8716 C.3       12 UNK        -0.0989 
     18 CA         29.2187   26.8265   -1.4201 C.3       5 UNK         0.0716 
     19 N          27.9012   26.2600   -1.1644 N.am      5 UNK        -0.4135 
     20 C          26.7835   26.5545   -1.8369 C.2       4 UNK         0.5031 
     21 O          26.7563   27.1911   -2.8909 O.2       4 UNK        -0.5229 
     22 CA         25.4626   26.0933   -1.1981 C.3       4 UNK         0.0329 
     23 CB         25.0725   24.6937   -1.7003 C.3       4 UNK        -0.2001 
     24 N          25.5282   26.1011    0.2691 N.am      4 UNK        -0.4303 
     25 C          25.4937   27.2184    1.0157 C.2       3 UNK         0.5044 
     26 O          25.3524   28.3423    0.5324 O.2       3 UNK        -0.5152 
     27 CA         25.6349   27.0824    2.5450 C.3       3 UNK         0.0319 
     28 CB         24.5642   27.9039    3.2860 C.3       3 UNK        -0.2001 
     29 N          25.5473   25.6888    2.9813 N.am      3 UNK        -0.4354 
     30 C          26.5022   25.0179    3.6368 C.2       2 UNK         0.4964 
     31 O          27.5488   25.5233    4.0435 O.2       2 UNK        -0.5047 
     32 CA         26.2669   23.5096    3.8539 C.3       2 UNK         0.0288 
     33 CB         24.7999   23.0636    3.6511 C.3       2 UNK        -0.2113 
     34 N          27.1574   22.6933    3.0198 N.am      2 UNK        -0.4145 
     35 C          27.3254   22.7759    1.6888 C.2       1 UNK         0.5006 
     36 O          26.7474   23.5940    0.9703 O.2       1 UNK        -0.5103 
     37 C          29.6010   27.5120   -0.1008 C.2       5 UNK         0.5055 
     38 O          30.0029   26.8286    0.8413 O.2       5 UNK        -0.5220 
     39 N          29.3808   28.8285   -0.0319 N.am      6 UNK        -0.4450 
     40 CA         29.6452   29.6695    1.1327 C.3       6 UNK         0.0367 
     41 CB         28.3290   30.3052    1.6096 C.3       6 UNK        -0.1929 
     42 C          30.6468   30.7594    0.7380 C.2       6 UNK         0.5070 
     43 O          30.6279   31.2209   -0.4059 O.2       6 UNK        -0.5237 
     44 N          31.4688   31.1803    1.7006 N.am      7 UNK        -0.4739 
     45 CA         32.4312   32.2703    1.5791 C.3       7 UNK         0.0276 
     46 CB         33.8560   31.6880    1.5719 C.3       7 UNK        -0.1927 
     47 C          32.1729   33.2353    2.7419 C.2       7 UNK         0.5013 
     48 O          32.9922   33.3462    3.6570 O.2       7 UNK        -0.5193 
     49 N          30.9906   33.8683    2.7098 N.am      8 UNK        -0.4253 
     50 CA         30.4175   34.7184    3.7581 C.3       8 UNK         0.0242 
     51 CB         31.2184   36.0332    3.9099 C.3       8 UNK        -0.2000 
     52 C          30.2456   33.9223    5.0651 C.2       8 UNK         0.4948 
     53 O          29.3610   33.0678    5.1298 O.2       8 UNK        -0.5275 
     54 N          31.0926   34.1967    6.0648 N.am      9 UNK        -0.4246 
     55 CA         31.1332   33.4791    7.3398 C.3       9 UNK         0.0261 
     56 CB         31.8238   34.3668    8.3889 C.3       9 UNK        -0.1959 
     57 C          31.8317   32.1079    7.2542 C.2       9 UNK         0.5033 
     58 O          31.6190   31.2836    8.1454 O.2       9 UNK        -0.5390 
     59 N          32.6620   31.8878    6.2253 N.am      10 UNK        -0.4215 
     60 CA         33.4004   30.6434    6.0064 C.3       10 UNK         0.0240 
     61 CB         34.8073   30.9889    5.4857 C.3       10 UNK        -0.1982 
     62 C          32.6547   29.7182    5.0310 C.2       10 UNK         0.4970 
     63 O          31.7194   30.1499    4.3510 O.2       10 UNK        -0.4916 
     64 N          33.1115   28.4612    4.9724 N.am      11 UNK        -0.4279 
     65 CA         32.5607   27.3774    4.1427 C.3       11 UNK         0.1003 
     66 C          31.1172   26.9758    4.5797 C.2       11 UNK         0.5709 
     67 N          30.2260   26.6028    3.6716 N.am      11 UNK        -0.7358 
     68 O          30.8174   26.9418    5.7721 O.2       11 UNK        -0.4999 
     69 C69        32.7439   27.6224    2.6168 C.3       12 UNK        -0.0954 
     70 S70        34.4682   27.9522    2.1132 S.3       12 UNK        -0.2268 
     71 C71        35.1846   26.2796    1.9839 C.3       12 UNK         0.0203 
     72 H72        28.6011   18.3064    3.0457 H         1 UNK         0.0888 
     73 H73        26.8721   18.2322    3.3914 H         1 UNK         0.0888 
     74 H74        27.5210   17.4363    1.9548 H         1 UNK         0.0888 
     75 H75        29.2202   20.3005    2.2251 H         1 UNK         0.3017 
     76 H76        27.8774   21.5687    0.0430 H         1 UNK         0.0873 
     77 H77        29.6218   23.3956    0.4047 H         1 UNK         0.0745 
     78 H78        30.2142   21.7990    0.0591 H         1 UNK         0.0745 
     79 H79        33.0234   21.7531    2.4619 H         1 UNK         0.0705 
     80 H80        32.3296   21.2596    0.9421 H         1 UNK         0.0705 
     81 H81        33.9723   23.9753    2.7795 H         1 UNK         0.1334 
     82 H82        34.4887   26.4955   -0.6529 H         1 UNK         0.1417 
     83 H83        32.1035   22.9421   -0.9358 H         1 UNK         0.1562 
     84 H84        32.5357   24.2192   -2.9226 H         1 UNK         0.0748 
     85 H85        33.8619   25.3537   -2.9210 H         1 UNK         0.0748 
     86 H86        30.4640   25.0637   -1.0535 H         1 UNK         0.0940 
     87 H87        29.7918   25.1319   -2.6593 H         1 UNK         0.0940 
     88 H88        29.1555   27.5867   -2.2022 H         1 UNK         0.0703 
     89 H89        27.8139   25.7497   -0.2957 H         1 UNK         0.3081 
     90 H90        24.6815   26.7905   -1.5095 H         1 UNK         0.0719 
     91 H91        24.9347   24.6956   -2.7823 H         1 UNK         0.0809 
     92 H92        25.8375   23.9505   -1.4741 H         1 UNK         0.0809 
     93 H93        24.1360   24.3579   -1.2549 H         1 UNK         0.0809 
     94 H94        25.7348   25.2099    0.7136 H         1 UNK         0.2990 
     95 H95        26.6141   27.4941    2.7971 H         1 UNK         0.0690 
     96 H96        24.6324   28.9623    3.0309 H         1 UNK         0.0788 
     97 H97        24.6852   27.8263    4.3666 H         1 UNK         0.0788 
     98 H98        23.5562   27.5706    3.0362 H         1 UNK         0.0788 
     99 H99        24.7250   25.1790    2.6895 H         1 UNK         0.2993 
    100 H100       26.5348   23.3084    4.8924 H         1 UNK         0.0949 
    101 H101       24.6729   22.0172    3.9294 H         1 UNK         0.0767 
    102 H102       24.1191   23.6426    4.2768 H         1 UNK         0.0767 
    103 H103       24.4736   23.1636    2.6151 H         1 UNK         0.0767 
    104 H104       27.7213   22.0166    3.5137 H         1 UNK         0.3013 
    105 H105       29.0995   29.3275   -0.8652 H         1 UNK         0.3121 
    106 H106       30.0543   29.0817    1.9552 H         1 UNK         0.0774 
    107 H107       28.4953   30.9375    2.4833 H         1 UNK         0.0815 
    108 H108       27.8737   30.9255    0.8366 H         1 UNK         0.0815 
    109 H109       27.6040   29.5444    1.8957 H         1 UNK         0.0815 
    110 H110       31.4049   30.7697    2.6324 H         1 UNK         0.2987 
    111 H111       32.2828   32.8298    0.6527 H         1 UNK         0.0949 
    112 H112       34.0261   31.0795    0.6837 H         1 UNK         0.0806 
    113 H113       34.6063   32.4795    1.5747 H         1 UNK         0.0806 
    114 H114       34.0362   31.0560    2.4407 H         1 UNK         0.0806 
    115 H115       30.3741   33.6621    1.9360 H         1 UNK         0.3010 
    116 H116       29.4115   34.9848    3.4297 H         1 UNK         0.0829 
    117 H117       32.2616   35.8643    4.1782 H         1 UNK         0.0813 
    118 H118       31.2114   36.5998    2.9787 H         1 UNK         0.0813 
    119 H119       30.7783   36.6748    4.6746 H         1 UNK         0.0813 
    120 H120       31.8028   34.8982    5.9107 H         1 UNK         0.3038 
    121 H121       30.1073   33.3010    7.6697 H         1 UNK         0.0769 
    122 H122       32.8570   34.5859    8.1163 H         1 UNK         0.0811 
    123 H123       31.8414   33.8771    9.3637 H         1 UNK         0.0811 
    124 H124       31.2999   35.3145    8.5147 H         1 UNK         0.0811 
    125 H125       32.7198   32.5717    5.4756 H         1 UNK         0.3204 
    126 H126       33.5131   30.1079    6.9516 H         1 UNK         0.0748 
    127 H127       35.3919   30.0910    5.2816 H         1 UNK         0.0771 
    128 H128       34.7703   31.5694    4.5649 H         1 UNK         0.0771 
    129 H129       35.3628   31.5731    6.2195 H         1 UNK         0.0771 
    130 H130       33.8705   28.1933    5.5808 H         1 UNK         0.2980 
    131 H131       33.1608   26.5008    4.3879 H         1 UNK         0.0545 
    132 H132       29.3073   26.2954    3.9743 H         1 UNK         0.3459 
    133 H133       30.4190   26.6312    2.6743 H         1 UNK         0.3459 
    134 H134       32.1575   28.4808    2.3005 H         1 UNK         0.0616 
    135 H135       32.3630   26.7799    2.0415 H         1 UNK         0.0616 
    136 H136       36.1785   26.3563    1.5414 H         1 UNK         0.0634 
    137 H137       35.3274   25.8866    2.9916 H         1 UNK         0.0634 
@<TRIPOS>BOND
     1    1    2 1    
     2    1   72 1    
     3    1   73 1    
     4    1   74 1    
     5    2    3 2    
     6    2    4 am   BACKBONE|DICT|INTERRES
     7    4    5 1    
     8    4   75 1    
     9    5    6 1    
    10    5   35 1    
    11    5   76 1    
    12    6    7 1    
    13    6   77 1    
    14    6   78 1    
    15    7    8 1    
    16    8    9 1    
    17    8   79 1    
    18    8   80 1    
    19    9   10 ar   
    20    9   14 ar   
    21   10   11 ar   
    22   10   81 1    
    23   11   12 ar   
    24   11   71 1    
    25   12   13 ar   
    26   12   82 1    
    27   13   14 ar   
    28   13   15 1    
    29   14   83 1    
    30   15   16 1    
    31   15   84 1    
    32   15   85 1    
    33   16   17 1    
    34   17   18 1    
    35   17   86 1    
    36   17   87 1    
    37   18   19 1    
    38   18   37 1    
    39   18   88 1    
    40   19   20 am   BACKBONE|DICT|INTERRES
    41   19   89 1    
    42   20   21 2    
    43   20   22 1    
    44   22   23 1    
    45   22   24 1    
    46   22   90 1    
    47   23   91 1    
    48   23   92 1    
    49   23   93 1    
    50   24   25 am   BACKBONE|DICT|INTERRES
    51   24   94 1    
    52   25   26 2    
    53   25   27 1    
    54   27   28 1    
    55   27   29 1    
    56   27   95 1    
    57   28   96 1    
    58   28   97 1    
    59   28   98 1    
    60   29   30 am   BACKBONE|DICT|INTERRES
    61   29   99 1    
    62   30   31 2    
    63   30   32 1    
    64   32   33 1    
    65   32   34 1    
    66   32  100 1    
    67   33  101 1    
    68   33  102 1    
    69   33  103 1    
    70   34   35 am   BACKBONE|DICT|INTERRES
    71   34  104 1    
    72   35   36 2    
    73   37   38 2    
    74   37   39 am   BACKBONE|DICT|INTERRES
    75   39   40 1    
    76   39  105 1    
    77   40   41 1    
    78   40   42 1    
    79   40  106 1    
    80   41  107 1    
    81   41  108 1    
    82   41  109 1    
    83   42   43 2    
    84   42   44 am   BACKBONE|DICT|INTERRES
    85   44   45 1    
    86   44  110 1    
    87   45   46 1    
    88   45   47 1    
    89   45  111 1    
    90   46  112 1    
    91   46  113 1    
    92   46  114 1    
    93   47   48 2    
    94   47   49 am   BACKBONE|DICT|INTERRES
    95   49   50 1    
    96   49  115 1    
    97   50   51 1    
    98   50   52 1    
    99   50  116 1    
   100   51  117 1    
   101   51  118 1    
   102   51  119 1    
   103   52   53 2    
   104   52   54 am   BACKBONE|DICT|INTERRES
   105   54   55 1    
   106   54  120 1    
   107   55   56 1    
   108   55   57 1    
   109   55  121 1    
   110   56  122 1    
   111   56  123 1    
   112   56  124 1    
   113   57   58 2    
   114   57   59 am   BACKBONE|DICT|INTERRES
   115   59   60 1    
   116   59  125 1    
   117   60   61 1    
   118   60   62 1    
   119   60  126 1    
   120   61  127 1    
   121   61  128 1    
   122   61  129 1    
   123   62   63 2    
   124   62   64 am   BACKBONE|DICT|INTERRES
   125   64   65 1    
   126   64  130 1    
   127   65   66 1    
   128   65   69 1    
   129   65  131 1    
   130   66   67 am   BACKBONE|DICT|INTERRES
   131   66   68 2    
   132   67  132 1    
   133   67  133 1    
   134   69   70 1    
   135   69  134 1    
   136   69  135 1    
   137   70   71 1    
   138   71  136 1    
   139   71  137 1    
@<TRIPOS>SUBSTRUCTURE
     1 UNK         1 GROUP             0       ****    0 ROOT    
