@<TRIPOS>MOLECULE
3R136
137   139    1
SMALL
USER_CHARGES


@<TRIPOS>ATOM
      1 CA         30.1634   27.2446    3.0530 C.3       0 UNK        -0.1979 
      2 C          29.3726   26.0332    3.5131 C.2       0 UNK         0.4864 
      3 O          28.5226   26.1592    4.3956 O.2       0 UNK        -0.5359 
      4 N          29.6195   24.8614    2.9129 N.am      1 UNK        -0.4318 
      5 CA         28.9855   23.5777    3.2492 C.3       1 UNK         0.0824 
      6 C6         29.8572   22.3607    2.8359 C.3       12 UNK        -0.0944 
      7 S7         31.5392   22.3937    3.5462 S.3       12 UNK        -0.2672 
      8 C8         32.5810   22.4434    2.0523 C.3       12 UNK         0.0333 
      9 C9         32.5707   23.8197    1.4050 C.ar      12 UNK        -0.0807 
     10 C10        33.4568   24.8061    1.8446 C.ar      12 UNK        -0.0894 
     11 C11        33.4494   26.0775    1.2643 C.ar      12 UNK        -0.0804 
     12 C12        32.5383   26.3658    0.2419 C.ar      12 UNK        -0.0824 
     13 C13        31.6415   25.3868   -0.1994 C.ar      12 UNK        -0.0762 
     14 C14        31.6775   24.1112    0.3709 C.ar      12 UNK        -0.0782 
     15 C15        30.6213   25.6893   -1.2852 C.3       12 UNK         0.0230 
     16 S16        28.9544   25.8818   -0.5780 S.3       12 UNK        -0.2608 
     17 C17        28.8649   27.6820   -0.2809 C.3       12 UNK        -0.0989 
     18 CA         28.0068   28.4005   -1.3527 C.3       5 UNK         0.0716 
     19 N          26.6598   27.8356   -1.4259 N.am      5 UNK        -0.4135 
     20 C          25.7737   28.0448   -2.4062 C.2       4 UNK         0.5031 
     21 O          25.9848   28.7780   -3.3749 O.2       4 UNK        -0.5229 
     22 CA         24.4315   27.2925   -2.2806 C.3       4 UNK         0.0329 
     23 CB         23.7004   27.1455   -3.6322 C.3       4 UNK        -0.2001 
     24 N          24.5503   25.9884   -1.6100 N.am      4 UNK        -0.4303 
     25 C          25.2909   24.9345   -1.9842 C.2       3 UNK         0.5044 
     26 O          25.9985   24.9209   -2.9931 O.2       3 UNK        -0.5152 
     27 CA         25.2237   23.6875   -1.0749 C.3       3 UNK         0.0319 
     28 CB         26.1319   22.5476   -1.5744 C.3       3 UNK        -0.2001 
     29 N          25.5509   23.9480    0.3319 N.am      3 UNK        -0.4354 
     30 C          24.7978   24.5912    1.2315 C.2       2 UNK         0.4964 
     31 O          23.7385   25.1501    0.9423 O.2       2 UNK        -0.5047 
     32 CA         25.2673   24.6245    2.7017 C.3       2 UNK         0.0288 
     33 CB         24.4785   23.5945    3.5339 C.3       2 UNK        -0.2113 
     34 N          26.7117   24.4884    2.9585 N.am      2 UNK        -0.4145 
     35 C          27.5412   23.4666    2.6994 C.2       1 UNK         0.5006 
     36 O          27.2066   22.4722    2.0527 O.2       1 UNK        -0.5103 
     37 C          27.9413   29.9159   -1.0822 C.2       5 UNK         0.5055 
     38 O          27.1501   30.3500   -0.2410 O.2       5 UNK        -0.5220 
     39 N          28.7807   30.6876   -1.7860 N.am      6 UNK        -0.4450 
     40 CA         28.9009   32.1396   -1.6124 C.3       6 UNK         0.0367 
     41 CB         29.5554   32.7490   -2.8631 C.3       6 UNK        -0.1929 
     42 C          29.6919   32.5261   -0.3496 C.2       6 UNK         0.5070 
     43 O          29.4688   33.6064    0.1981 O.2       6 UNK        -0.5237 
     44 N          30.6062   31.6471    0.0803 N.am      7 UNK        -0.4739 
     45 CA         31.3903   31.7865    1.3066 C.3       7 UNK         0.0276 
     46 CB         32.6055   30.8491    1.2191 C.3       7 UNK        -0.1927 
     47 C          30.5526   31.4571    2.5538 C.2       7 UNK         0.5013 
     48 O          29.5973   30.6820    2.4673 O.2       7 UNK        -0.5193 
     49 N          30.9537   32.0225    3.6986 N.am      8 UNK        -0.4253 
     50 CA         30.4166   31.6797    5.0169 C.3       8 UNK         0.0242 
     51 CB         30.7570   32.8078    6.0050 C.3       8 UNK        -0.2000 
     52 C          31.0041   30.3467    5.5064 C.2       8 UNK         0.4948 
     53 O          32.1313   30.0117    5.1415 O.2       8 UNK        -0.5275 
     54 N          30.2642   29.6449    6.3763 N.am      9 UNK        -0.4246 
     55 CA         30.5783   28.3107    6.9158 C.3       9 UNK         0.0261 
     56 CB         29.4283   27.8676    7.8359 C.3       9 UNK        -0.1959 
     57 C          31.9357   28.1572    7.6368 C.2       9 UNK         0.5033 
     58 O          32.3604   27.0264    7.8767 O.2       9 UNK        -0.5390 
     59 N          32.5932   29.2758    7.9664 N.am      10 UNK        -0.4215 
     60 CA         33.9429   29.3339    8.5271 C.3       10 UNK         0.0240 
     61 CB         34.1646   30.7321    9.1292 C.3       10 UNK        -0.1982 
     62 C          35.0626   28.9977    7.5189 C.2       10 UNK         0.4970 
     63 O          36.1926   28.7804    7.9601 O.2       10 UNK        -0.4916 
     64 N          34.7676   28.9887    6.2087 N.am      11 UNK        -0.4279 
     65 CA         35.7292   28.6695    5.1391 C.3       11 UNK         0.1003 
     66 C          36.3218   27.2298    5.2044 C.2       11 UNK         0.5709 
     67 N          37.4707   27.0093    4.5784 N.am      11 UNK        -0.7358 
     68 O          35.7479   26.3104    5.7854 O.2       11 UNK        -0.4999 
     69 C69        35.1610   29.0139    3.7354 C.3       12 UNK        -0.0954 
     70 S70        33.7503   27.9745    3.2240 S.3       12 UNK        -0.2268 
     71 C71        34.4200   27.1360    1.7612 C.3       12 UNK         0.0203 
     72 H72        30.6464   27.0734    2.0939 H         1 UNK         0.0888 
     73 H73        29.5041   28.1049    2.9510 H         1 UNK         0.0888 
     74 H74        30.9320   27.4936    3.7815 H         1 UNK         0.0888 
     75 H75        30.3248   24.8175    2.1893 H         1 UNK         0.3017 
     76 H76        28.8894   23.5372    4.3366 H         1 UNK         0.0873 
     77 H77        29.9115   22.2769    1.7504 H         1 UNK         0.0745 
     78 H78        29.3906   21.4348    3.1779 H         1 UNK         0.0745 
     79 H79        32.2533   21.6794    1.3455 H         1 UNK         0.0705 
     80 H80        33.6023   22.1783    2.3301 H         1 UNK         0.0705 
     81 H81        34.1481   24.5881    2.6477 H         1 UNK         0.1334 
     82 H82        32.5198   27.3535   -0.1979 H         1 UNK         0.1417 
     83 H83        30.9921   23.3529    0.0172 H         1 UNK         0.1562 
     84 H84        30.6034   24.8656   -2.0004 H         1 UNK         0.0748 
     85 H85        30.8979   26.5777   -1.8549 H         1 UNK         0.0748 
     86 H86        29.8732   28.0980   -0.2422 H         1 UNK         0.0940 
     87 H87        28.4373   27.8388    0.7112 H         1 UNK         0.0940 
     88 H88        28.4772   28.2436   -2.3261 H         1 UNK         0.0703 
     89 H89        26.4011   27.2160   -0.6740 H         1 UNK         0.3081 
     90 H90        23.8047   27.9082   -1.6339 H         1 UNK         0.0719 
     91 H91        23.4871   28.1210   -4.0710 H         1 UNK         0.0809 
     92 H92        24.2962   26.5876   -4.3553 H         1 UNK         0.0809 
     93 H93        22.7470   26.6306   -3.5139 H         1 UNK         0.0809 
     94 H94        24.0309   25.8835   -0.7403 H         1 UNK         0.2990 
     95 H95        24.1934   23.3283   -1.1161 H         1 UNK         0.0690 
     96 H96        26.0201   21.6529   -0.9614 H         1 UNK         0.0788 
     97 H97        27.1838   22.8370   -1.5556 H         1 UNK         0.0788 
     98 H98        25.8862   22.2679   -2.5998 H         1 UNK         0.0788 
     99 H99        26.3719   23.4728    0.6951 H         1 UNK         0.2993 
    100 H100       25.0024   25.6159    3.0732 H         1 UNK         0.0949 
    101 H101       24.6938   22.5716    3.2227 H         1 UNK         0.0767 
    102 H102       24.7133   23.6789    4.5951 H         1 UNK         0.0767 
    103 H103       23.4032   23.7458    3.4285 H         1 UNK         0.0767 
    104 H104       27.1290   25.2565    3.4808 H         1 UNK         0.3013 
    105 H105       29.3816   30.2611   -2.4773 H         1 UNK         0.3121 
    106 H106       27.8984   32.5626   -1.5147 H         1 UNK         0.0774 
    107 H107       29.6321   33.8336   -2.7725 H         1 UNK         0.0815 
    108 H108       30.5636   32.3643   -3.0221 H         1 UNK         0.0815 
    109 H109       28.9698   32.5419   -3.7590 H         1 UNK         0.0815 
    110 H110       30.6951   30.7738   -0.4150 H         1 UNK         0.2987 
    111 H111       31.7429   32.8178    1.3812 H         1 UNK         0.0949 
    112 H112       33.2265   31.0775    0.3528 H         1 UNK         0.0806 
    113 H113       33.2365   30.9462    2.1030 H         1 UNK         0.0806 
    114 H114       32.3035   29.8030    1.1522 H         1 UNK         0.0806 
    115 H115       31.7803   32.6018    3.6907 H         1 UNK         0.3010 
    116 H116       29.3307   31.5854    4.9446 H         1 UNK         0.0829 
    117 H117       30.3464   33.7619    5.6735 H         1 UNK         0.0813 
    118 H118       30.3407   32.6050    6.9926 H         1 UNK         0.0813 
    119 H119       31.8346   32.9302    6.1244 H         1 UNK         0.0813 
    120 H120       29.3671   30.0233    6.6459 H         1 UNK         0.3038 
    121 H121       30.6074   27.6239    6.0693 H         1 UNK         0.0769 
    122 H122       29.6065   26.8675    8.2340 H         1 UNK         0.0811 
    123 H123       28.4814   27.8300    7.2966 H         1 UNK         0.0811 
    124 H124       29.3092   28.5406    8.6858 H         1 UNK         0.0811 
    125 H125       32.1724   30.1556    7.7069 H         1 UNK         0.3204 
    126 H126       34.0066   28.6010    9.3342 H         1 UNK         0.0748 
    127 H127       35.1473   30.8059    9.5973 H         1 UNK         0.0771 
    128 H128       34.1064   31.5126    8.3692 H         1 UNK         0.0771 
    129 H129       33.4254   30.9553    9.8989 H         1 UNK         0.0771 
    130 H130       33.8190   29.1855    5.9045 H         1 UNK         0.2980 
    131 H131       36.5721   29.3434    5.3043 H         1 UNK         0.0545 
    132 H132       37.8681   26.0834    4.5995 H         1 UNK         0.3459 
    133 H133       37.9521   27.7495    4.0924 H         1 UNK         0.3459 
    134 H134       34.8282   30.0525    3.7247 H         1 UNK         0.0616 
    135 H135       35.9495   28.9548    2.9835 H         1 UNK         0.0616 
    136 H136       34.6194   27.8721    0.9809 H         1 UNK         0.0634 
    137 H137       35.3767   26.6748    2.0115 H         1 UNK         0.0634 
@<TRIPOS>BOND
     1    1    2 1    
     2    1   72 1    
     3    1   73 1    
     4    1   74 1    
     5    2    3 2    
     6    2    4 am   BACKBONE|DICT|INTERRES
     7    4    5 1    
     8    4   75 1    
     9    5    6 1    
    10    5   35 1    
    11    5   76 1    
    12    6    7 1    
    13    6   77 1    
    14    6   78 1    
    15    7    8 1    
    16    8    9 1    
    17    8   79 1    
    18    8   80 1    
    19    9   10 ar   
    20    9   14 ar   
    21   10   11 ar   
    22   10   81 1    
    23   11   12 ar   
    24   11   71 1    
    25   12   13 ar   
    26   12   82 1    
    27   13   14 ar   
    28   13   15 1    
    29   14   83 1    
    30   15   16 1    
    31   15   84 1    
    32   15   85 1    
    33   16   17 1    
    34   17   18 1    
    35   17   86 1    
    36   17   87 1    
    37   18   19 1    
    38   18   37 1    
    39   18   88 1    
    40   19   20 am   BACKBONE|DICT|INTERRES
    41   19   89 1    
    42   20   21 2    
    43   20   22 1    
    44   22   23 1    
    45   22   24 1    
    46   22   90 1    
    47   23   91 1    
    48   23   92 1    
    49   23   93 1    
    50   24   25 am   BACKBONE|DICT|INTERRES
    51   24   94 1    
    52   25   26 2    
    53   25   27 1    
    54   27   28 1    
    55   27   29 1    
    56   27   95 1    
    57   28   96 1    
    58   28   97 1    
    59   28   98 1    
    60   29   30 am   BACKBONE|DICT|INTERRES
    61   29   99 1    
    62   30   31 2    
    63   30   32 1    
    64   32   33 1    
    65   32   34 1    
    66   32  100 1    
    67   33  101 1    
    68   33  102 1    
    69   33  103 1    
    70   34   35 am   BACKBONE|DICT|INTERRES
    71   34  104 1    
    72   35   36 2    
    73   37   38 2    
    74   37   39 am   BACKBONE|DICT|INTERRES
    75   39   40 1    
    76   39  105 1    
    77   40   41 1    
    78   40   42 1    
    79   40  106 1    
    80   41  107 1    
    81   41  108 1    
    82   41  109 1    
    83   42   43 2    
    84   42   44 am   BACKBONE|DICT|INTERRES
    85   44   45 1    
    86   44  110 1    
    87   45   46 1    
    88   45   47 1    
    89   45  111 1    
    90   46  112 1    
    91   46  113 1    
    92   46  114 1    
    93   47   48 2    
    94   47   49 am   BACKBONE|DICT|INTERRES
    95   49   50 1    
    96   49  115 1    
    97   50   51 1    
    98   50   52 1    
    99   50  116 1    
   100   51  117 1    
   101   51  118 1    
   102   51  119 1    
   103   52   53 2    
   104   52   54 am   BACKBONE|DICT|INTERRES
   105   54   55 1    
   106   54  120 1    
   107   55   56 1    
   108   55   57 1    
   109   55  121 1    
   110   56  122 1    
   111   56  123 1    
   112   56  124 1    
   113   57   58 2    
   114   57   59 am   BACKBONE|DICT|INTERRES
   115   59   60 1    
   116   59  125 1    
   117   60   61 1    
   118   60   62 1    
   119   60  126 1    
   120   61  127 1    
   121   61  128 1    
   122   61  129 1    
   123   62   63 2    
   124   62   64 am   BACKBONE|DICT|INTERRES
   125   64   65 1    
   126   64  130 1    
   127   65   66 1    
   128   65   69 1    
   129   65  131 1    
   130   66   67 am   BACKBONE|DICT|INTERRES
   131   66   68 2    
   132   67  132 1    
   133   67  133 1    
   134   69   70 1    
   135   69  134 1    
   136   69  135 1    
   137   70   71 1    
   138   71  136 1    
   139   71  137 1    
@<TRIPOS>SUBSTRUCTURE
     1 UNK         1 GROUP             0       ****    0 ROOT    
