@<TRIPOS>MOLECULE
3R136
137   139    1
SMALL
USER_CHARGES


@<TRIPOS>ATOM
      1 CA         26.2155   22.5904    4.8686 C.3       0 UNK        -0.1979 
      2 C          27.4139   23.5329    4.7742 C.2       0 UNK         0.4864 
      3 O          27.6286   24.3207    5.6938 O.2       0 UNK        -0.5359 
      4 N          28.2299   23.4881    3.7104 N.am      1 UNK        -0.4318 
      5 CA         28.0941   22.6680    2.4985 C.3       1 UNK         0.0824 
      6 C6         29.3627   22.7638    1.6143 C.3       12 UNK        -0.0944 
      7 S7         30.8212   22.0758    2.4641 S.3       12 UNK        -0.2672 
      8 C8         32.0116   21.9408    1.0941 C.3       12 UNK         0.0333 
      9 C9         32.5867   23.2962    0.7111 C.ar      12 UNK        -0.0807 
     10 C10        33.5510   23.8980    1.5268 C.ar      12 UNK        -0.0894 
     11 C11        34.0955   25.1386    1.1839 C.ar      12 UNK        -0.0804 
     12 C12        33.6826   25.7671    0.0073 C.ar      12 UNK        -0.0824 
     13 C13        32.7031   25.1883   -0.8034 C.ar      12 UNK        -0.0762 
     14 C14        32.1626   23.9470   -0.4530 C.ar      12 UNK        -0.0782 
     15 C15        32.2056   25.9370   -2.0313 C.3       12 UNK         0.0230 
     16 S16        30.6137   26.7731   -1.7270 S.3       12 UNK        -0.2608 
     17 C17        30.9072   27.6109   -0.1303 C.3       12 UNK        -0.0989 
     18 CA         29.7344   28.5178    0.3086 C.3       5 UNK         0.0716 
     19 N          28.4439   27.8157    0.2643 N.am      5 UNK        -0.4135 
     20 C          27.2450   28.3553    0.5264 C.2       4 UNK         0.5031 
     21 O          27.0942   29.5247    0.8830 O.2       4 UNK        -0.5229 
     22 CA         26.0203   27.4257    0.4342 C.3       4 UNK         0.0329 
     23 CB         24.7358   28.1724    0.0153 C.3       4 UNK        -0.2001 
     24 N          26.2353   26.2215   -0.3802 N.am      4 UNK        -0.4303 
     25 C          26.4041   26.1420   -1.7115 C.2       3 UNK         0.5044 
     26 O          26.4386   27.1230   -2.4544 O.2       3 UNK        -0.5152 
     27 CA         26.5698   24.7367   -2.3338 C.3       3 UNK         0.0319 
     28 CB         27.9839   24.5495   -2.9076 C.3       3 UNK        -0.2001 
     29 N          26.2976   23.6351   -1.4071 N.am      3 UNK        -0.4354 
     30 C          25.0878   23.2873   -0.9473 C.2       2 UNK         0.4964 
     31 O          24.0361   23.7928   -1.3393 O.2       2 UNK        -0.5047 
     32 CA         25.0429   22.2189    0.1631 C.3       2 UNK         0.0288 
     33 CB         24.6771   20.8476   -0.4284 C.3       2 UNK        -0.2113 
     34 N          26.2763   22.0869    0.9548 N.am      2 UNK        -0.4145 
     35 C          26.8445   23.0598    1.6839 C.2       1 UNK         0.5006 
     36 O          26.4376   24.2239    1.7056 O.2       1 UNK        -0.5103 
     37 C          30.0378   29.1221    1.6956 C.2       5 UNK         0.5055 
     38 O          30.6440   30.1910    1.7732 O.2       5 UNK        -0.5220 
     39 N          29.5628   28.4511    2.7561 N.am      6 UNK        -0.4450 
     40 CA         29.6600   28.8602    4.1599 C.3       6 UNK         0.0367 
     41 CB         29.1291   27.7195    5.0436 C.3       6 UNK        -0.1929 
     42 C          28.9510   30.1883    4.5001 C.2       6 UNK         0.5070 
     43 O          29.2041   30.7438    5.5692 O.2       6 UNK        -0.5237 
     44 N          28.0774   30.6822    3.6099 N.am      7 UNK        -0.4739 
     45 CA         27.4589   32.0048    3.7233 C.3       7 UNK         0.0276 
     46 CB         26.1349   32.0105    2.9417 C.3       7 UNK        -0.1927 
     47 C          28.3781   33.1384    3.2281 C.2       7 UNK         0.5013 
     48 O          28.1180   34.2951    3.5630 O.2       7 UNK        -0.5193 
     49 N          29.4060   32.8072    2.4327 N.am      8 UNK        -0.4253 
     50 CA         30.3289   33.7616    1.8148 C.3       8 UNK         0.0242 
     51 CB         30.3357   33.5436    0.2917 C.3       8 UNK        -0.2000 
     52 C          31.7480   33.6291    2.3840 C.2       8 UNK         0.4948 
     53 O          32.3554   34.6449    2.7261 O.2       8 UNK        -0.5275 
     54 N          32.2535   32.3937    2.4669 N.am      9 UNK        -0.4246 
     55 CA         33.5759   32.0507    2.9874 C.3       9 UNK         0.0261 
     56 CB         34.2318   31.0590    2.0120 C.3       9 UNK        -0.1959 
     57 C          33.4390   31.4162    4.3768 C.2       9 UNK         0.5033 
     58 O          32.3693   30.9124    4.7200 O.2       9 UNK        -0.5390 
     59 N          34.5366   31.3889    5.1431 N.am      10 UNK        -0.4215 
     60 CA         34.6183   30.7935    6.4854 C.3       10 UNK         0.0240 
     61 CB         35.7966   31.4361    7.2425 C.3       10 UNK        -0.1982 
     62 C          34.6952   29.2483    6.4696 C.2       10 UNK         0.4970 
     63 O          35.4927   28.6637    7.2056 O.2       10 UNK        -0.4916 
     64 N          33.8816   28.6167    5.6195 N.am      11 UNK        -0.4279 
     65 CA         33.7722   27.1626    5.4529 C.3       11 UNK         0.1003 
     66 C          32.8569   26.5226    6.5303 C.2       11 UNK         0.5709 
     67 N          33.0333   25.2371    6.8040 N.am      11 UNK        -0.7358 
     68 O          31.9758   27.1639    7.1001 O.2       11 UNK        -0.4999 
     69 C69        33.3007   26.8003    4.0209 C.3       12 UNK        -0.0954 
     70 S70        34.4849   27.3812    2.7598 S.3       12 UNK        -0.2268 
     71 C71        35.1207   25.8150    2.0819 C.3       12 UNK         0.0203 
     72 H72        26.4639   21.5812    4.5435 H         1 UNK         0.0888 
     73 H73        25.8703   22.5218    5.9000 H         1 UNK         0.0888 
     74 H74        25.3876   22.9633    4.2663 H         1 UNK         0.0888 
     75 H75        29.0218   24.1128    3.7011 H         1 UNK         0.3017 
     76 H76        27.9788   21.6282    2.8101 H         1 UNK         0.0873 
     77 H77        29.5707   23.7992    1.3353 H         1 UNK         0.0745 
     78 H78        29.2276   22.2122    0.6817 H         1 UNK         0.0745 
     79 H79        32.8246   21.2813    1.4015 H         1 UNK         0.0705 
     80 H80        31.5381   21.4583    0.2377 H         1 UNK         0.0705 
     81 H81        33.8676   23.4019    2.4342 H         1 UNK         0.1334 
     82 H82        34.0979   26.7312   -0.2538 H         1 UNK         0.1417 
     83 H83        31.4029   23.4984   -1.0786 H         1 UNK         0.1562 
     84 H84        32.0898   25.2434   -2.8653 H         1 UNK         0.0748 
     85 H85        32.9394   26.6785   -2.3511 H         1 UNK         0.0748 
     86 H86        31.8275   28.1937   -0.2088 H         1 UNK         0.0940 
     87 H87        31.0897   26.8460    0.6277 H         1 UNK         0.0940 
     88 H88        29.6655   29.3498   -0.3955 H         1 UNK         0.0703 
     89 H89        28.4751   26.8579   -0.0517 H         1 UNK         0.3081 
     90 H90        25.8598   27.0602    1.4496 H         1 UNK         0.0719 
     91 H91        24.8412   28.6465   -0.9608 H         1 UNK         0.0809 
     92 H92        23.8810   27.4975   -0.0283 H         1 UNK         0.0809 
     93 H93        24.4899   28.9587    0.7301 H         1 UNK         0.0809 
     94 H94        26.2442   25.3573    0.1554 H         1 UNK         0.2990 
     95 H95        25.8578   24.6717   -3.1593 H         1 UNK         0.0690 
     96 H96        28.2506   25.3669   -3.5794 H         1 UNK         0.0788 
     97 H97        28.0583   23.6256   -3.4814 H         1 UNK         0.0788 
     98 H98        28.7366   24.5145   -2.1199 H         1 UNK         0.0788 
     99 H99        27.1001   23.1433   -1.0439 H         1 UNK         0.2993 
    100 H100       24.2485   22.5163    0.8512 H         1 UNK         0.0949 
    101 H101       25.4522   20.4785   -1.1014 H         1 UNK         0.0767 
    102 H102       24.5277   20.1035    0.3543 H         1 UNK         0.0767 
    103 H103       23.7490   20.9025   -0.9996 H         1 UNK         0.0767 
    104 H104       26.6859   21.1635    0.9787 H         1 UNK         0.3013 
    105 H105       29.0597   27.5948    2.5786 H         1 UNK         0.3121 
    106 H106       30.7175   28.9956    4.3870 H         1 UNK         0.0774 
    107 H107       28.0759   27.5118    4.8503 H         1 UNK         0.0815 
    108 H108       29.2233   27.9707    6.1011 H         1 UNK         0.0815 
    109 H109       29.6901   26.7980    4.8868 H         1 UNK         0.0815 
    110 H110       27.8906   30.1679    2.7555 H         1 UNK         0.2987 
    111 H111       27.2307   32.2028    4.7731 H         1 UNK         0.0949 
    112 H112       26.2968   31.8790    1.8713 H         1 UNK         0.0806 
    113 H113       25.4682   31.2173    3.2803 H         1 UNK         0.0806 
    114 H114       25.6080   32.9562    3.0756 H         1 UNK         0.0806 
    115 H115       29.5846   31.8247    2.2526 H         1 UNK         0.3010 
    116 H116       29.9989   34.7859    2.0011 H         1 UNK         0.0829 
    117 H117       29.3472   33.7147   -0.1349 H         1 UNK         0.0813 
    118 H118       31.0241   34.2332   -0.1988 H         1 UNK         0.0813 
    119 H119       30.6423   32.5308    0.0265 H         1 UNK         0.0813 
    120 H120       31.6629   31.5985    2.2272 H         1 UNK         0.3038 
    121 H121       34.2036   32.9407    3.0682 H         1 UNK         0.0769 
    122 H122       33.6240   30.1619    1.8851 H         1 UNK         0.0811 
    123 H123       35.2140   30.7414    2.3642 H         1 UNK         0.0811 
    124 H124       34.3699   31.5072    1.0280 H         1 UNK         0.0811 
    125 H125       35.3928   31.7784    4.7747 H         1 UNK         0.3204 
    126 H126       33.7049   31.0495    7.0270 H         1 UNK         0.0748 
    127 H127       36.7530   31.2026    6.7727 H         1 UNK         0.0771 
    128 H128       35.6979   32.5211    7.2840 H         1 UNK         0.0771 
    129 H129       35.8430   31.0807    8.2729 H         1 UNK         0.0771 
    130 H130       33.2144   29.1830    5.1065 H         1 UNK         0.2980 
    131 H131       34.7681   26.7362    5.5902 H         1 UNK         0.0545 
    132 H132       32.4421   24.8002    7.4934 H         1 UNK         0.3459 
    133 H133       33.7477   24.6966    6.3423 H         1 UNK         0.3459 
    134 H134       33.1677   25.7221    3.9184 H         1 UNK         0.0616 
    135 H135       32.3281   27.2462    3.8081 H         1 UNK         0.0616 
    136 H136       36.0195   26.0232    1.5000 H         1 UNK         0.0634 
    137 H137       35.4262   25.1613    2.9004 H         1 UNK         0.0634 
@<TRIPOS>BOND
     1    1    2 1    
     2    1   72 1    
     3    1   73 1    
     4    1   74 1    
     5    2    3 2    
     6    2    4 am   BACKBONE|DICT|INTERRES
     7    4    5 1    
     8    4   75 1    
     9    5    6 1    
    10    5   35 1    
    11    5   76 1    
    12    6    7 1    
    13    6   77 1    
    14    6   78 1    
    15    7    8 1    
    16    8    9 1    
    17    8   79 1    
    18    8   80 1    
    19    9   10 ar   
    20    9   14 ar   
    21   10   11 ar   
    22   10   81 1    
    23   11   12 ar   
    24   11   71 1    
    25   12   13 ar   
    26   12   82 1    
    27   13   14 ar   
    28   13   15 1    
    29   14   83 1    
    30   15   16 1    
    31   15   84 1    
    32   15   85 1    
    33   16   17 1    
    34   17   18 1    
    35   17   86 1    
    36   17   87 1    
    37   18   19 1    
    38   18   37 1    
    39   18   88 1    
    40   19   20 am   BACKBONE|DICT|INTERRES
    41   19   89 1    
    42   20   21 2    
    43   20   22 1    
    44   22   23 1    
    45   22   24 1    
    46   22   90 1    
    47   23   91 1    
    48   23   92 1    
    49   23   93 1    
    50   24   25 am   BACKBONE|DICT|INTERRES
    51   24   94 1    
    52   25   26 2    
    53   25   27 1    
    54   27   28 1    
    55   27   29 1    
    56   27   95 1    
    57   28   96 1    
    58   28   97 1    
    59   28   98 1    
    60   29   30 am   BACKBONE|DICT|INTERRES
    61   29   99 1    
    62   30   31 2    
    63   30   32 1    
    64   32   33 1    
    65   32   34 1    
    66   32  100 1    
    67   33  101 1    
    68   33  102 1    
    69   33  103 1    
    70   34   35 am   BACKBONE|DICT|INTERRES
    71   34  104 1    
    72   35   36 2    
    73   37   38 2    
    74   37   39 am   BACKBONE|DICT|INTERRES
    75   39   40 1    
    76   39  105 1    
    77   40   41 1    
    78   40   42 1    
    79   40  106 1    
    80   41  107 1    
    81   41  108 1    
    82   41  109 1    
    83   42   43 2    
    84   42   44 am   BACKBONE|DICT|INTERRES
    85   44   45 1    
    86   44  110 1    
    87   45   46 1    
    88   45   47 1    
    89   45  111 1    
    90   46  112 1    
    91   46  113 1    
    92   46  114 1    
    93   47   48 2    
    94   47   49 am   BACKBONE|DICT|INTERRES
    95   49   50 1    
    96   49  115 1    
    97   50   51 1    
    98   50   52 1    
    99   50  116 1    
   100   51  117 1    
   101   51  118 1    
   102   51  119 1    
   103   52   53 2    
   104   52   54 am   BACKBONE|DICT|INTERRES
   105   54   55 1    
   106   54  120 1    
   107   55   56 1    
   108   55   57 1    
   109   55  121 1    
   110   56  122 1    
   111   56  123 1    
   112   56  124 1    
   113   57   58 2    
   114   57   59 am   BACKBONE|DICT|INTERRES
   115   59   60 1    
   116   59  125 1    
   117   60   61 1    
   118   60   62 1    
   119   60  126 1    
   120   61  127 1    
   121   61  128 1    
   122   61  129 1    
   123   62   63 2    
   124   62   64 am   BACKBONE|DICT|INTERRES
   125   64   65 1    
   126   64  130 1    
   127   65   66 1    
   128   65   69 1    
   129   65  131 1    
   130   66   67 am   BACKBONE|DICT|INTERRES
   131   66   68 2    
   132   67  132 1    
   133   67  133 1    
   134   69   70 1    
   135   69  134 1    
   136   69  135 1    
   137   70   71 1    
   138   71  136 1    
   139   71  137 1    
@<TRIPOS>SUBSTRUCTURE
     1 UNK         1 GROUP             0       ****    0 ROOT    
