@<TRIPOS>MOLECULE
3R136
137   139    1
SMALL
USER_CHARGES


@<TRIPOS>ATOM
      1 CA         29.3207   22.4170   -0.7563 C.3       0 UNK        -0.1979 
      2 C          28.7341   23.2895    0.3414 C.2       0 UNK         0.4864 
      3 O          28.3738   24.4388    0.0813 O.2       0 UNK        -0.5359 
      4 N          28.6421   22.7662    1.5691 N.am      1 UNK        -0.4318 
      5 CA         28.0801   23.4559    2.7353 C.3       1 UNK         0.0824 
      6 C6         28.3909   22.7214    4.0648 C.3       12 UNK        -0.0944 
      7 S7         30.1432   22.2193    4.2487 S.3       12 UNK        -0.2672 
      8 C8         30.9867   23.7927    4.6124 C.3       12 UNK         0.0333 
      9 C9         31.9748   24.1679    3.5135 C.ar      12 UNK        -0.0807 
     10 C10        33.3445   23.9408    3.6731 C.ar      12 UNK        -0.0894 
     11 C11        34.2469   24.3038    2.6666 C.ar      12 UNK        -0.0804 
     12 C12        33.7731   24.9178    1.5002 C.ar      12 UNK        -0.0824 
     13 C13        32.4048   25.1518    1.3287 C.ar      12 UNK        -0.0762 
     14 C14        31.5203   24.7562    2.3329 C.ar      12 UNK        -0.0782 
     15 C15        31.8719   25.7897    0.0489 C.3       12 UNK         0.0230 
     16 S16        31.6382   27.5946    0.1921 S.3       12 UNK        -0.2608 
     17 C17        30.0852   27.7490    1.1455 C.3       12 UNK        -0.0989 
     18 CA         28.8526   28.1263    0.2839 C.3       5 UNK         0.0716 
     19 N          28.5378   27.1217   -0.7291 N.am      5 UNK        -0.4135 
     20 C          27.9899   27.3944   -1.9200 C.2       4 UNK         0.5031 
     21 O          27.7763   28.5358   -2.3316 O.2       4 UNK        -0.5229 
     22 CA         27.5717   26.1960   -2.7781 C.3       4 UNK         0.0329 
     23 CB         28.7989   25.4094   -3.2719 C.3       4 UNK        -0.2001 
     24 N          26.6890   25.3133   -2.0130 N.am      4 UNK        -0.4303 
     25 C          25.4260   25.0153   -2.3430 C.2       3 UNK         0.5044 
     26 O          24.8557   25.4438   -3.3473 O.2       3 UNK        -0.5152 
     27 CA         24.6639   24.0630   -1.4048 C.3       3 UNK         0.0319 
     28 CB         25.0206   22.6005   -1.7167 C.3       3 UNK        -0.2001 
     29 N          24.8929   24.3200    0.0178 N.am      3 UNK        -0.4354 
     30 C          24.4846   25.4030    0.6924 C.2       2 UNK         0.4964 
     31 O          23.8714   26.3364    0.1753 O.2       2 UNK        -0.5047 
     32 CA         24.8078   25.4660    2.1984 C.3       2 UNK         0.0288 
     33 CB         23.6887   24.8266    3.0447 C.3       2 UNK        -0.2113 
     34 N          26.1389   24.9465    2.5439 N.am      2 UNK        -0.4145 
     35 C          26.5707   23.6763    2.5285 C.2       1 UNK         0.5006 
     36 O          25.8514   22.7052    2.2833 O.2       1 UNK        -0.5103 
     37 C          27.5891   28.2866    1.1458 C.2       5 UNK         0.5055 
     38 O          27.4218   27.5469    2.1193 O.2       5 UNK        -0.5220 
     39 N          26.7002   29.2045    0.7384 N.am      6 UNK        -0.4450 
     40 CA         25.4387   29.5129    1.4228 C.3       6 UNK         0.0367 
     41 CB         24.6157   30.4961    0.5749 C.3       6 UNK        -0.1929 
     42 C          25.6547   30.0613    2.8436 C.2       6 UNK         0.5070 
     43 O          24.9703   29.6390    3.7755 O.2       6 UNK        -0.5237 
     44 N          26.6334   30.9611    2.9751 N.am      7 UNK        -0.4739 
     45 CA         27.1592   31.4989    4.2230 C.3       7 UNK         0.0276 
     46 CB         26.2028   32.5503    4.8166 C.3       7 UNK        -0.1927 
     47 C          28.5227   32.1119    3.8935 C.2       7 UNK         0.5013 
     48 O          28.6297   32.8252    2.8921 O.2       7 UNK        -0.5193 
     49 N          29.5331   31.8260    4.7183 N.am      8 UNK        -0.4253 
     50 CA         30.9038   32.3103    4.5768 C.3       8 UNK         0.0242 
     51 CB         31.6038   31.6204    3.3879 C.3       8 UNK        -0.2000 
     52 C          31.6542   32.0291    5.8828 C.2       8 UNK         0.4948 
     53 O          31.2683   31.1209    6.6241 O.2       8 UNK        -0.5275 
     54 N          32.7208   32.7984    6.1308 N.am      9 UNK        -0.4246 
     55 CA         33.5964   32.6496    7.2992 C.3       9 UNK         0.0261 
     56 CB         34.2590   34.0051    7.5993 C.3       9 UNK        -0.1959 
     57 C          34.6698   31.5573    7.1250 C.2       9 UNK         0.5033 
     58 O          35.2853   31.1598    8.1156 O.2       9 UNK        -0.5390 
     59 N          34.8926   31.1060    5.8860 N.am      10 UNK        -0.4215 
     60 CA         35.8770   30.1045    5.4874 C.3       10 UNK         0.0240 
     61 CB         37.2742   30.7524    5.3967 C.3       10 UNK        -0.1982 
     62 C          35.4419   29.5040    4.1432 C.2       10 UNK         0.4970 
     63 O          34.4515   29.9569    3.5644 O.2       10 UNK        -0.4916 
     64 N          36.1972   28.5088    3.6663 N.am      11 UNK        -0.4279 
     65 CA         35.9667   27.7994    2.3950 C.3       11 UNK         0.1003 
     66 C          36.1133   28.6637    1.1063 C.2       11 UNK         0.5709 
     67 N          36.6964   29.8556    1.1622 N.am      11 UNK        -0.7358 
     68 O          35.6952   28.2377    0.0326 O.2       11 UNK        -0.4999 
     69 C69        36.8582   26.5341    2.2901 C.3       12 UNK        -0.0954 
     70 S70        36.6104   25.3606    3.6651 S.3       12 UNK        -0.2268 
     71 C71        35.7285   24.0021    2.8368 C.3       12 UNK         0.0203 
     72 H72        28.6520   22.3939   -1.6161 H         1 UNK         0.0888 
     73 H73        30.2795   22.8200   -1.0807 H         1 UNK         0.0888 
     74 H74        29.4776   21.3923   -0.4202 H         1 UNK         0.0888 
     75 H75        28.9494   21.8188    1.7358 H         1 UNK         0.3017 
     76 H76        28.5307   24.4445    2.7994 H         1 UNK         0.0873 
     77 H77        27.7906   21.8125    4.1421 H         1 UNK         0.0745 
     78 H78        28.1080   23.3401    4.9186 H         1 UNK         0.0745 
     79 H79        31.5043   23.6977    5.5682 H         1 UNK         0.0705 
     80 H80        30.2591   24.5948    4.7435 H         1 UNK         0.0705 
     81 H81        33.7096   23.4746    4.5782 H         1 UNK         0.1334 
     82 H82        34.4666   25.2038    0.7213 H         1 UNK         0.1417 
     83 H83        30.4674   24.8997    2.1890 H         1 UNK         0.1562 
     84 H84        30.9316   25.3242   -0.2454 H         1 UNK         0.0748 
     85 H85        32.5663   25.5989   -0.7706 H         1 UNK         0.0748 
     86 H86        30.2526   28.5167    1.9036 H         1 UNK         0.0940 
     87 H87        29.8895   26.8371    1.6992 H         1 UNK         0.0940 
     88 H88        29.0702   29.0835   -0.1954 H         1 UNK         0.0703 
     89 H89        28.6096   26.1502   -0.4325 H         1 UNK         0.3081 
     90 H90        27.0532   26.5899   -3.6548 H         1 UNK         0.0719 
     91 H91        29.4661   26.0517   -3.8482 H         1 UNK         0.0809 
     92 H92        29.3796   24.9923   -2.4492 H         1 UNK         0.0809 
     93 H93        28.5023   24.5852   -3.9207 H         1 UNK         0.0809 
     94 H94        27.0788   24.9248   -1.1576 H         1 UNK         0.2990 
     95 H95        23.5973   24.1987   -1.5962 H         1 UNK         0.0690 
     96 H96        24.4116   21.9108   -1.1317 H         1 UNK         0.0788 
     97 H97        26.0681   22.3850   -1.5039 H         1 UNK         0.0788 
     98 H98        24.8469   22.3716   -2.7692 H         1 UNK         0.0788 
     99 H99        25.3499   23.5891    0.5526 H         1 UNK         0.2993 
    100 H100       24.8407   26.5221    2.4660 H         1 UNK         0.0949 
    101 H101       23.5353   23.7752    2.8003 H         1 UNK         0.0767 
    102 H102       23.9080   24.8967    4.1101 H         1 UNK         0.0767 
    103 H103       22.7394   25.3361    2.8748 H         1 UNK         0.0767 
    104 H104       26.8281   25.6843    2.6632 H         1 UNK         0.3013 
    105 H105       26.8961   29.7188   -0.1099 H         1 UNK         0.3121 
    106 H106       24.8680   28.5880    1.5061 H         1 UNK         0.0774 
    107 H107       23.6676   30.7294    1.0616 H         1 UNK         0.0815 
    108 H108       25.1418   31.4384    0.4177 H         1 UNK         0.0815 
    109 H109       24.3802   30.0741   -0.4023 H         1 UNK         0.0815 
    110 H110       27.1428   31.2580    2.1520 H         1 UNK         0.2987 
    111 H111       27.2902   30.6798    4.9339 H         1 UNK         0.0949 
    112 H112       25.2365   32.1147    5.0706 H         1 UNK         0.0806 
    113 H113       26.6142   32.9784    5.7316 H         1 UNK         0.0806 
    114 H114       26.0269   33.3719    4.1209 H         1 UNK         0.0806 
    115 H115       29.3860   31.2486    5.5383 H         1 UNK         0.3010 
    116 H116       30.8773   33.3899    4.4131 H         1 UNK         0.0829 
    117 H117       31.0920   31.8141    2.4455 H         1 UNK         0.0813 
    118 H118       32.6256   31.9821    3.2699 H         1 UNK         0.0813 
    119 H119       31.6539   30.5389    3.5227 H         1 UNK         0.0813 
    120 H120       32.9642   33.5263    5.4730 H         1 UNK         0.3038 
    121 H121       32.9890   32.3721    8.1637 H         1 UNK         0.0769 
    122 H122       34.8908   33.9432    8.4866 H         1 UNK         0.0811 
    123 H123       33.5141   34.7782    7.7890 H         1 UNK         0.0811 
    124 H124       34.8895   34.3393    6.7743 H         1 UNK         0.0811 
    125 H125       34.2963   31.4148    5.1284 H         1 UNK         0.3204 
    126 H126       35.8889   29.3008    6.2266 H         1 UNK         0.0748 
    127 H127       38.0380   30.0225    5.1267 H         1 UNK         0.0771 
    128 H128       37.3004   31.5474    4.6503 H         1 UNK         0.0771 
    129 H129       37.5742   31.1846    6.3516 H         1 UNK         0.0771 
    130 H130       36.9903   28.1921    4.2037 H         1 UNK         0.2980 
    131 H131       34.9258   27.4705    2.4083 H         1 UNK         0.0545 
    132 H132       36.7828   30.4014    0.3196 H         1 UNK         0.3459 
    133 H133       37.0428   30.2157    2.0360 H         1 UNK         0.3459 
    134 H134       36.6858   26.0162    1.3453 H         1 UNK         0.0616 
    135 H135       37.9119   26.8184    2.2823 H         1 UNK         0.0616 
    136 H136       35.8504   23.0979    3.4352 H         1 UNK         0.0634 
    137 H137       36.1912   23.7851    1.8729 H         1 UNK         0.0634 
@<TRIPOS>BOND
     1    1    2 1    
     2    1   72 1    
     3    1   73 1    
     4    1   74 1    
     5    2    3 2    
     6    2    4 am   BACKBONE|DICT|INTERRES
     7    4    5 1    
     8    4   75 1    
     9    5    6 1    
    10    5   35 1    
    11    5   76 1    
    12    6    7 1    
    13    6   77 1    
    14    6   78 1    
    15    7    8 1    
    16    8    9 1    
    17    8   79 1    
    18    8   80 1    
    19    9   10 ar   
    20    9   14 ar   
    21   10   11 ar   
    22   10   81 1    
    23   11   12 ar   
    24   11   71 1    
    25   12   13 ar   
    26   12   82 1    
    27   13   14 ar   
    28   13   15 1    
    29   14   83 1    
    30   15   16 1    
    31   15   84 1    
    32   15   85 1    
    33   16   17 1    
    34   17   18 1    
    35   17   86 1    
    36   17   87 1    
    37   18   19 1    
    38   18   37 1    
    39   18   88 1    
    40   19   20 am   BACKBONE|DICT|INTERRES
    41   19   89 1    
    42   20   21 2    
    43   20   22 1    
    44   22   23 1    
    45   22   24 1    
    46   22   90 1    
    47   23   91 1    
    48   23   92 1    
    49   23   93 1    
    50   24   25 am   BACKBONE|DICT|INTERRES
    51   24   94 1    
    52   25   26 2    
    53   25   27 1    
    54   27   28 1    
    55   27   29 1    
    56   27   95 1    
    57   28   96 1    
    58   28   97 1    
    59   28   98 1    
    60   29   30 am   BACKBONE|DICT|INTERRES
    61   29   99 1    
    62   30   31 2    
    63   30   32 1    
    64   32   33 1    
    65   32   34 1    
    66   32  100 1    
    67   33  101 1    
    68   33  102 1    
    69   33  103 1    
    70   34   35 am   BACKBONE|DICT|INTERRES
    71   34  104 1    
    72   35   36 2    
    73   37   38 2    
    74   37   39 am   BACKBONE|DICT|INTERRES
    75   39   40 1    
    76   39  105 1    
    77   40   41 1    
    78   40   42 1    
    79   40  106 1    
    80   41  107 1    
    81   41  108 1    
    82   41  109 1    
    83   42   43 2    
    84   42   44 am   BACKBONE|DICT|INTERRES
    85   44   45 1    
    86   44  110 1    
    87   45   46 1    
    88   45   47 1    
    89   45  111 1    
    90   46  112 1    
    91   46  113 1    
    92   46  114 1    
    93   47   48 2    
    94   47   49 am   BACKBONE|DICT|INTERRES
    95   49   50 1    
    96   49  115 1    
    97   50   51 1    
    98   50   52 1    
    99   50  116 1    
   100   51  117 1    
   101   51  118 1    
   102   51  119 1    
   103   52   53 2    
   104   52   54 am   BACKBONE|DICT|INTERRES
   105   54   55 1    
   106   54  120 1    
   107   55   56 1    
   108   55   57 1    
   109   55  121 1    
   110   56  122 1    
   111   56  123 1    
   112   56  124 1    
   113   57   58 2    
   114   57   59 am   BACKBONE|DICT|INTERRES
   115   59   60 1    
   116   59  125 1    
   117   60   61 1    
   118   60   62 1    
   119   60  126 1    
   120   61  127 1    
   121   61  128 1    
   122   61  129 1    
   123   62   63 2    
   124   62   64 am   BACKBONE|DICT|INTERRES
   125   64   65 1    
   126   64  130 1    
   127   65   66 1    
   128   65   69 1    
   129   65  131 1    
   130   66   67 am   BACKBONE|DICT|INTERRES
   131   66   68 2    
   132   67  132 1    
   133   67  133 1    
   134   69   70 1    
   135   69  134 1    
   136   69  135 1    
   137   70   71 1    
   138   71  136 1    
   139   71  137 1    
@<TRIPOS>SUBSTRUCTURE
     1 UNK         1 GROUP             0       ****    0 ROOT    
