@<TRIPOS>MOLECULE
3R136
137   139    1
SMALL
USER_CHARGES


@<TRIPOS>ATOM
      1 CA         28.0164   24.4240   -3.1234 C.3       0 UNK        -0.1979 
      2 C          28.3052   24.3339   -1.6340 C.2       0 UNK         0.4864 
      3 O          27.5319   24.8533   -0.8289 O.2       0 UNK        -0.5359 
      4 N          29.4041   23.6662   -1.2588 N.am      1 UNK        -0.4318 
      5 CA         29.9419   23.5503    0.1080 C.3       1 UNK         0.0824 
      6 C6         31.3133   22.8265    0.1061 C.3       12 UNK        -0.0944 
      7 S7         32.5546   23.7487   -0.8696 S.3       12 UNK        -0.2672 
      8 C8         33.7453   24.3039    0.4002 C.3       12 UNK         0.0333 
      9 C9         33.0865   24.9995    1.5864 C.ar      12 UNK        -0.0807 
     10 C10        33.3145   24.5300    2.8839 C.ar      12 UNK        -0.0894 
     11 C11        32.7021   25.1422    3.9819 C.ar      12 UNK        -0.0804 
     12 C12        31.8327   26.2164    3.7697 C.ar      12 UNK        -0.0824 
     13 C13        31.5829   26.6856    2.4769 C.ar      12 UNK        -0.0762 
     14 C14        32.2381   26.0941    1.3923 C.ar      12 UNK        -0.0782 
     15 C15        30.5797   27.8076    2.2542 C.3       12 UNK         0.0230 
     16 S16        29.1150   27.1985    1.3607 S.3       12 UNK        -0.2608 
     17 C17        29.4199   27.8047   -0.3415 C.3       12 UNK        -0.0989 
     18 CA         28.2068   28.5578   -0.9448 C.3       5 UNK         0.0716 
     19 N          27.0452   27.6723   -1.0652 N.am      5 UNK        -0.4135 
     20 C          25.8659   27.9768   -1.6212 C.2       4 UNK         0.5031 
     21 O          25.6525   29.0148   -2.2490 O.2       4 UNK        -0.5229 
     22 CA         24.7114   26.9747   -1.4204 C.3       4 UNK         0.0329 
     23 CB         24.4689   26.1644   -2.7037 C.3       4 UNK        -0.2001 
     24 N          24.8618   26.0473   -0.2891 N.am      4 UNK        -0.4303 
     25 C          25.0259   26.3855    0.9996 C.2       3 UNK         0.5044 
     26 O          25.1461   27.5457    1.3959 O.2       3 UNK        -0.5152 
     27 CA         25.0373   25.2392    2.0195 C.3       3 UNK         0.0319 
     28 CB         23.5744   24.8759    2.3645 C.3       3 UNK        -0.2001 
     29 N          25.7999   24.0783    1.5337 N.am      3 UNK        -0.4354 
     30 C          25.9828   22.9297    2.2081 C.2       2 UNK         0.4964 
     31 O          25.5411   22.7164    3.3377 O.2       2 UNK        -0.5047 
     32 CA         26.7909   21.8114    1.5216 C.3       2 UNK         0.0288 
     33 CB         25.8656   20.9263    0.6704 C.3       2 UNK        -0.2113 
     34 N          27.8813   22.3098    0.6862 N.am      2 UNK        -0.4145 
     35 C          28.9818   22.9217    1.1458 C.2       1 UNK         0.5006 
     36 O          29.2504   23.0116    2.3448 O.2       1 UNK        -0.5103 
     37 C          27.9112   29.8634   -0.1670 C.2       5 UNK         0.5055 
     38 O          28.5635   30.8756   -0.4283 O.2       5 UNK        -0.5220 
     39 N          26.9464   29.8212    0.7672 N.am      6 UNK        -0.4450 
     40 CA         26.5086   30.9177    1.6322 C.3       6 UNK         0.0367 
     41 CB         25.7135   31.9606    0.8130 C.3       6 UNK        -0.1929 
     42 C          27.6796   31.5028    2.4474 C.2       6 UNK         0.5070 
     43 O          28.2500   30.7908    3.2734 O.2       6 UNK        -0.5237 
     44 N          28.0150   32.7758    2.2074 N.am      7 UNK        -0.4739 
     45 CA         29.0668   33.5178    2.9046 C.3       7 UNK         0.0276 
     46 CB         28.6048   34.9782    3.0603 C.3       7 UNK        -0.1927 
     47 C          30.4407   33.4491    2.2091 C.2       7 UNK         0.5013 
     48 O          31.3644   34.1187    2.6740 O.2       7 UNK        -0.5193 
     49 N          30.5722   32.6841    1.1119 N.am      8 UNK        -0.4253 
     50 CA         31.8031   32.5962    0.3111 C.3       8 UNK         0.0242 
     51 CB         31.5203   31.8367   -0.9948 C.3       8 UNK        -0.2000 
     52 C          33.0060   31.9641    1.0377 C.2       8 UNK         0.4948 
     53 O          34.1442   32.2328    0.6498 O.2       8 UNK        -0.5275 
     54 N          32.7468   31.1464    2.0630 N.am      9 UNK        -0.4246 
     55 CA         33.7385   30.4932    2.9111 C.3       9 UNK         0.0261 
     56 CB         34.3639   29.2901    2.1759 C.3       9 UNK        -0.1959 
     57 C          33.0572   30.0697    4.2182 C.2       9 UNK         0.5033 
     58 O          31.8293   30.1346    4.3191 O.2       9 UNK        -0.5390 
     59 N          33.8646   29.6357    5.1880 N.am      10 UNK        -0.4215 
     60 CA         33.4387   29.0794    6.4677 C.3       10 UNK         0.0240 
     61 CB         33.2536   30.2071    7.4990 C.3       10 UNK        -0.1982 
     62 C          34.5050   28.0764    6.9196 C.2       10 UNK         0.4970 
     63 O          35.6595   28.1917    6.4965 O.2       10 UNK        -0.4916 
     64 N          34.1006   27.1235    7.7639 N.am      11 UNK        -0.4279 
     65 CA         34.9484   26.0442    8.2911 C.3       11 UNK         0.1003 
     66 C          34.8674   25.9963    9.8381 C.2       11 UNK         0.5709 
     67 N          35.8950   25.4790   10.4974 N.am      11 UNK        -0.7358 
     68 O          33.8748   26.3965   10.4457 O.2       11 UNK        -0.4999 
     69 C69        34.5832   24.6650    7.6748 C.3       12 UNK        -0.0954 
     70 S70        34.7039   24.6484    5.8532 S.3       12 UNK        -0.2268 
     71 C71        32.9411   24.6216    5.3932 C.3       12 UNK         0.0203 
     72 H72        28.8390   24.0327   -3.7216 H         1 UNK         0.0888 
     73 H73        27.1186   23.8568   -3.3664 H         1 UNK         0.0888 
     74 H74        27.8554   25.4629   -3.4099 H         1 UNK         0.0888 
     75 H75        29.9923   23.2610   -1.9734 H         1 UNK         0.3017 
     76 H76        30.1028   24.5698    0.4586 H         1 UNK         0.0873 
     77 H77        31.6869   22.6865    1.1221 H         1 UNK         0.0745 
     78 H78        31.2155   21.8245   -0.3156 H         1 UNK         0.0745 
     79 H79        34.4584   24.9887   -0.0603 H         1 UNK         0.0705 
     80 H80        34.3212   23.4384    0.7317 H         1 UNK         0.0705 
     81 H81        33.9689   23.6841    3.0452 H         1 UNK         0.1334 
     82 H82        31.3326   26.6778    4.6102 H         1 UNK         0.1417 
     83 H83        32.0493   26.4536    0.3902 H         1 UNK         0.1562 
     84 H84        31.0527   28.6374    1.7292 H         1 UNK         0.0748 
     85 H85        30.2426   28.2143    3.2090 H         1 UNK         0.0748 
     86 H86        29.6704   26.9463   -0.9658 H         1 UNK         0.0940 
     87 H87        30.3031   28.4442   -0.3692 H         1 UNK         0.0940 
     88 H88        28.4736   28.8570   -1.9603 H         1 UNK         0.0703 
     89 H89        27.1431   26.7544   -0.6399 H         1 UNK         0.3081 
     90 H90        23.8172   27.5693   -1.2233 H         1 UNK         0.0719 
     91 H91        25.3042   25.5003   -2.9231 H         1 UNK         0.0809 
     92 H92        23.5675   25.5563   -2.6256 H         1 UNK         0.0809 
     93 H93        24.3392   26.8215   -3.5649 H         1 UNK         0.0809 
     94 H94        24.7795   25.0667   -0.5124 H         1 UNK         0.2990 
     95 H95        25.5316   25.6085    2.9202 H         1 UNK         0.0690 
     96 H96        23.5054   24.2463    3.2507 H         1 UNK         0.0788 
     97 H97        23.0842   24.3531    1.5426 H         1 UNK         0.0788 
     98 H98        22.9867   25.7703    2.5777 H         1 UNK         0.0788 
     99 H99        26.3027   24.2126    0.6600 H         1 UNK         0.2993 
    100 H100       27.2273   21.1919    2.3085 H         1 UNK         0.0949 
    101 H101       25.4141   21.4845   -0.1509 H         1 UNK         0.0767 
    102 H102       26.4062   20.0802    0.2455 H         1 UNK         0.0767 
    103 H103       25.0526   20.5193    1.2737 H         1 UNK         0.0767 
    104 H104       27.7390   22.2904   -0.3128 H         1 UNK         0.3013 
    105 H105       26.4833   28.9315    0.9347 H         1 UNK         0.3121 
    106 H106       25.8235   30.4780    2.3586 H         1 UNK         0.0774 
    107 H107       25.3264   32.7551    1.4525 H         1 UNK         0.0815 
    108 H108       26.3166   32.4222    0.0303 H         1 UNK         0.0815 
    109 H109       24.8539   31.4970    0.3286 H         1 UNK         0.0815 
    110 H110       27.5147   33.2726    1.4838 H         1 UNK         0.2987 
    111 H111       29.2016   33.1002    3.9051 H         1 UNK         0.0949 
    112 H112       29.3254   35.5610    3.6359 H         1 UNK         0.0806 
    113 H113       28.4864   35.4697    2.0939 H         1 UNK         0.0806 
    114 H114       27.6525   35.0391    3.5875 H         1 UNK         0.0806 
    115 H115       29.7702   32.1598    0.7763 H         1 UNK         0.3010 
    116 H116       32.0913   33.6164    0.0490 H         1 UNK         0.0829 
    117 H117       30.7136   32.3028   -1.5609 H         1 UNK         0.0813 
    118 H118       32.4010   31.8241   -1.6384 H         1 UNK         0.0813 
    119 H119       31.2431   30.7996   -0.8042 H         1 UNK         0.0813 
    120 H120       31.7916   31.0199    2.3773 H         1 UNK         0.3038 
    121 H121       34.5191   31.2151    3.1608 H         1 UNK         0.0769 
    122 H122       33.6063   28.5734    1.8637 H         1 UNK         0.0811 
    123 H123       35.0749   28.7575    2.8083 H         1 UNK         0.0811 
    124 H124       34.9058   29.6064    1.2847 H         1 UNK         0.0811 
    125 H125       34.8612   29.5555    5.0222 H         1 UNK         0.3204 
    126 H126       32.4962   28.5434    6.3338 H         1 UNK         0.0748 
    127 H127       32.9405   29.8093    8.4651 H         1 UNK         0.0771 
    128 H128       34.1787   30.7630    7.6573 H         1 UNK         0.0771 
    129 H129       32.4891   30.9149    7.1778 H         1 UNK         0.0771 
    130 H130       33.1598   27.1449    8.1313 H         1 UNK         0.2980 
    131 H131       35.9912   26.2540    8.0448 H         1 UNK         0.0545 
    132 H132       36.7096   25.1381   10.0107 H         1 UNK         0.3459 
    133 H133       35.8558   25.4294   11.5036 H         1 UNK         0.3459 
    134 H134       33.5811   24.3577    7.9797 H         1 UNK         0.0616 
    135 H135       35.2592   23.8950    8.0507 H         1 UNK         0.0616 
    136 H136       32.3761   25.2178    6.1113 H         1 UNK         0.0634 
    137 H137       32.5653   23.6007    5.4722 H         1 UNK         0.0634 
@<TRIPOS>BOND
     1    1    2 1    
     2    1   72 1    
     3    1   73 1    
     4    1   74 1    
     5    2    3 2    
     6    2    4 am   BACKBONE|DICT|INTERRES
     7    4    5 1    
     8    4   75 1    
     9    5    6 1    
    10    5   35 1    
    11    5   76 1    
    12    6    7 1    
    13    6   77 1    
    14    6   78 1    
    15    7    8 1    
    16    8    9 1    
    17    8   79 1    
    18    8   80 1    
    19    9   10 ar   
    20    9   14 ar   
    21   10   11 ar   
    22   10   81 1    
    23   11   12 ar   
    24   11   71 1    
    25   12   13 ar   
    26   12   82 1    
    27   13   14 ar   
    28   13   15 1    
    29   14   83 1    
    30   15   16 1    
    31   15   84 1    
    32   15   85 1    
    33   16   17 1    
    34   17   18 1    
    35   17   86 1    
    36   17   87 1    
    37   18   19 1    
    38   18   37 1    
    39   18   88 1    
    40   19   20 am   BACKBONE|DICT|INTERRES
    41   19   89 1    
    42   20   21 2    
    43   20   22 1    
    44   22   23 1    
    45   22   24 1    
    46   22   90 1    
    47   23   91 1    
    48   23   92 1    
    49   23   93 1    
    50   24   25 am   BACKBONE|DICT|INTERRES
    51   24   94 1    
    52   25   26 2    
    53   25   27 1    
    54   27   28 1    
    55   27   29 1    
    56   27   95 1    
    57   28   96 1    
    58   28   97 1    
    59   28   98 1    
    60   29   30 am   BACKBONE|DICT|INTERRES
    61   29   99 1    
    62   30   31 2    
    63   30   32 1    
    64   32   33 1    
    65   32   34 1    
    66   32  100 1    
    67   33  101 1    
    68   33  102 1    
    69   33  103 1    
    70   34   35 am   BACKBONE|DICT|INTERRES
    71   34  104 1    
    72   35   36 2    
    73   37   38 2    
    74   37   39 am   BACKBONE|DICT|INTERRES
    75   39   40 1    
    76   39  105 1    
    77   40   41 1    
    78   40   42 1    
    79   40  106 1    
    80   41  107 1    
    81   41  108 1    
    82   41  109 1    
    83   42   43 2    
    84   42   44 am   BACKBONE|DICT|INTERRES
    85   44   45 1    
    86   44  110 1    
    87   45   46 1    
    88   45   47 1    
    89   45  111 1    
    90   46  112 1    
    91   46  113 1    
    92   46  114 1    
    93   47   48 2    
    94   47   49 am   BACKBONE|DICT|INTERRES
    95   49   50 1    
    96   49  115 1    
    97   50   51 1    
    98   50   52 1    
    99   50  116 1    
   100   51  117 1    
   101   51  118 1    
   102   51  119 1    
   103   52   53 2    
   104   52   54 am   BACKBONE|DICT|INTERRES
   105   54   55 1    
   106   54  120 1    
   107   55   56 1    
   108   55   57 1    
   109   55  121 1    
   110   56  122 1    
   111   56  123 1    
   112   56  124 1    
   113   57   58 2    
   114   57   59 am   BACKBONE|DICT|INTERRES
   115   59   60 1    
   116   59  125 1    
   117   60   61 1    
   118   60   62 1    
   119   60  126 1    
   120   61  127 1    
   121   61  128 1    
   122   61  129 1    
   123   62   63 2    
   124   62   64 am   BACKBONE|DICT|INTERRES
   125   64   65 1    
   126   64  130 1    
   127   65   66 1    
   128   65   69 1    
   129   65  131 1    
   130   66   67 am   BACKBONE|DICT|INTERRES
   131   66   68 2    
   132   67  132 1    
   133   67  133 1    
   134   69   70 1    
   135   69  134 1    
   136   69  135 1    
   137   70   71 1    
   138   71  136 1    
   139   71  137 1    
@<TRIPOS>SUBSTRUCTURE
     1 UNK         1 GROUP             0       ****    0 ROOT    
