@<TRIPOS>MOLECULE
3R136
137   139    1
SMALL
USER_CHARGES


@<TRIPOS>ATOM
      1 CA         27.3363   19.3989    1.3177 C.3       0 UNK        -0.1979 
      2 C          26.7892   19.5115   -0.1039 C.2       0 UNK         0.4864 
      3 O          25.9377   18.7073   -0.4782 O.2       0 UNK        -0.5359 
      4 N          27.2212   20.4742   -0.9361 N.am      1 UNK        -0.4318 
      5 CA         28.2156   21.5360   -0.7039 C.3       1 UNK         0.0824 
      6 C6         29.6086   20.9873   -0.2807 C.3       12 UNK        -0.0944 
      7 S7         31.0119   21.9766   -0.9016 S.3       12 UNK        -0.2672 
      8 C8         32.3144   21.5587    0.3045 C.3       12 UNK         0.0333 
      9 C9         32.4149   22.5736    1.4379 C.ar      12 UNK        -0.0807 
     10 C10        33.4915   23.4657    1.4923 C.ar      12 UNK        -0.0894 
     11 C11        33.6138   24.3688    2.5531 C.ar      12 UNK        -0.0804 
     12 C12        32.6364   24.3908    3.5545 C.ar      12 UNK        -0.0824 
     13 C13        31.5449   23.5204    3.5046 C.ar      12 UNK        -0.0762 
     14 C14        31.4549   22.6016    2.4540 C.ar      12 UNK        -0.0782 
     15 C15        30.4905   23.5398    4.6070 C.3       12 UNK         0.0230 
     16 S16        28.7942   23.5963    3.9396 S.3       12 UNK        -0.2608 
     17 C17        28.2155   25.2658    4.3900 C.3       12 UNK        -0.0989 
     18 CA         28.9471   26.4466    3.6992 C.3       5 UNK         0.0716 
     19 N          29.1379   26.2503    2.2536 N.am      5 UNK        -0.4135 
     20 C          29.7492   27.1238    1.4371 C.2       4 UNK         0.5031 
     21 O          30.1849   28.2126    1.8021 O.2       4 UNK        -0.5229 
     22 CA         29.8410   26.7555   -0.0473 C.3       4 UNK         0.0329 
     23 CB         30.8978   25.6647   -0.2846 C.3       4 UNK        -0.2001 
     24 N          28.5331   26.3324   -0.5444 N.am      4 UNK        -0.4303 
     25 C          27.5351   27.1857   -0.8267 C.2       3 UNK         0.5044 
     26 O          27.6599   28.4104   -0.8215 O.2       3 UNK        -0.5152 
     27 CA         26.1533   26.5848   -1.1456 C.3       3 UNK         0.0319 
     28 CB         25.9806   26.4070   -2.6624 C.3       3 UNK        -0.2001 
     29 N          25.9019   25.3067   -0.4770 N.am      3 UNK        -0.4354 
     30 C          25.8374   25.1336    0.8513 C.2       2 UNK         0.4964 
     31 O          25.9196   26.0509    1.6676 O.2       2 UNK        -0.5047 
     32 CA         25.7195   23.6845    1.3542 C.3       2 UNK         0.0288 
     33 CB         24.2447   23.2944    1.5372 C.3       2 UNK        -0.2113 
     34 N          26.3832   22.6971    0.4925 N.am      2 UNK        -0.4145 
     35 C          27.6928   22.6871    0.1918 C.2       1 UNK         0.5006 
     36 O          28.4643   23.5692    0.5679 O.2       1 UNK        -0.5103 
     37 C          28.2175   27.7676    4.0387 C.2       5 UNK         0.5055 
     38 O          28.5625   28.4228    5.0232 O.2       5 UNK        -0.5220 
     39 N          27.2273   28.1298    3.2101 N.am      6 UNK        -0.4450 
     40 CA         26.4447   29.3622    3.3043 C.3       6 UNK         0.0367 
     41 CB         25.2179   29.2399    2.3859 C.3       6 UNK        -0.1929 
     42 C          27.2277   30.6465    2.9715 C.2       6 UNK         0.5070 
     43 O          26.7887   31.7255    3.3742 O.2       6 UNK        -0.5237 
     44 N          28.3556   30.5446    2.2526 N.am      7 UNK        -0.4739 
     45 CA         29.2065   31.6788    1.8829 C.3       7 UNK         0.0276 
     46 CB         29.9965   31.3341    0.6065 C.3       7 UNK        -0.1927 
     47 C          30.1226   32.0540    3.0583 C.2       7 UNK         0.5013 
     48 O          31.3284   31.8037    3.0082 O.2       7 UNK        -0.5193 
     49 N          29.5244   32.6181    4.1164 N.am      8 UNK        -0.4253 
     50 CA         30.1313   32.9086    5.4241 C.3       8 UNK         0.0242 
     51 CB         29.0712   33.5574    6.3289 C.3       8 UNK        -0.2000 
     52 C          31.4144   33.7627    5.4056 C.2       8 UNK         0.4948 
     53 O          32.1938   33.6911    6.3562 O.2       8 UNK        -0.5275 
     54 N          31.6258   34.5361    4.3324 N.am      9 UNK        -0.4246 
     55 CA         32.8557   35.2882    4.0718 C.3       9 UNK         0.0261 
     56 CB         32.5817   36.3196    2.9645 C.3       9 UNK        -0.1959 
     57 C          34.0596   34.4002    3.6918 C.2       9 UNK         0.5033 
     58 O          35.1932   34.8771    3.7721 O.2       9 UNK        -0.5390 
     59 N          33.8072   33.1532    3.2727 N.am      10 UNK        -0.4215 
     60 CA         34.8062   32.1747    2.8572 C.3       10 UNK         0.0240 
     61 CB         34.7877   32.0560    1.3181 C.3       10 UNK        -0.1982 
     62 C          34.5342   30.8540    3.5939 C.2       10 UNK         0.4970 
     63 O          34.8952   30.7374    4.7656 O.2       10 UNK        -0.4916 
     64 N          33.9249   29.8860    2.8997 N.am      11 UNK        -0.4279 
     65 CA         33.5883   28.5476    3.4075 C.3       11 UNK         0.1003 
     66 C          32.4899   28.5038    4.5103 C.2       11 UNK         0.5709 
     67 N          31.6641   29.5250    4.6773 N.am      11 UNK        -0.7358 
     68 O          32.3941   27.5168    5.2352 O.2       11 UNK        -0.4999 
     69 C69        33.2364   27.5928    2.2345 C.3       12 UNK        -0.0954 
     70 S70        34.6863   26.7445    1.5370 S.3       12 UNK        -0.2268 
     71 C71        34.8192   25.2981    2.6382 C.3       12 UNK         0.0203 
     72 H72        27.4702   20.3679    1.7945 H         1 UNK         0.0888 
     73 H73        26.6480   18.8281    1.9407 H         1 UNK         0.0888 
     74 H74        28.2908   18.8739    1.3146 H         1 UNK         0.0888 
     75 H75        26.8214   20.4879   -1.8649 H         1 UNK         0.3017 
     76 H76        28.3373   21.9939   -1.6869 H         1 UNK         0.0873 
     77 H77        29.6722   20.8777    0.7998 H         1 UNK         0.0745 
     78 H78        29.7506   19.9835   -0.6845 H         1 UNK         0.0745 
     79 H79        33.2640   21.5004   -0.2294 H         1 UNK         0.0705 
     80 H80        32.1421   20.5620    0.7133 H         1 UNK         0.0705 
     81 H81        34.2461   23.4492    0.7178 H         1 UNK         0.1334 
     82 H82        32.7295   25.0856    4.3774 H         1 UNK         0.1417 
     83 H83        30.6257   21.9118    2.4334 H         1 UNK         0.1562 
     84 H84        30.6498   24.3776    5.2877 H         1 UNK         0.0748 
     85 H85        30.5985   22.6344    5.2053 H         1 UNK         0.0748 
     86 H86        28.2807   25.3677    5.4752 H         1 UNK         0.0940 
     87 H87        27.1493   25.2940    4.1548 H         1 UNK         0.0940 
     88 H88        29.9486   26.5186    4.1275 H         1 UNK         0.0703 
     89 H89        28.8302   25.3611    1.8764 H         1 UNK         0.3081 
     90 H90        30.1531   27.6445   -0.6002 H         1 UNK         0.0719 
     91 H91        30.7189   24.7792    0.3246 H         1 UNK         0.0809 
     92 H92        30.9257   25.3530   -1.3285 H         1 UNK         0.0809 
     93 H93        31.8932   26.0279   -0.0270 H         1 UNK         0.0809 
     94 H94        28.3404   25.3383   -0.5065 H         1 UNK         0.2990 
     95 H95        25.4004   27.2943   -0.7956 H         1 UNK         0.0690 
     96 H96        26.6932   25.6883   -3.0693 H         1 UNK         0.0788 
     97 H97        26.1363   27.3518   -3.1854 H         1 UNK         0.0788 
     98 H98        24.9761   26.0637   -2.9107 H         1 UNK         0.0788 
     99 H99        25.8159   24.4933   -1.0683 H         1 UNK         0.2993 
    100 H100       26.2064   23.6441    2.3304 H         1 UNK         0.0949 
    101 H101       23.7078   23.2835    0.5878 H         1 UNK         0.0767 
    102 H102       24.1486   22.3074    1.9903 H         1 UNK         0.0767 
    103 H103       23.7334   24.0006    2.1933 H         1 UNK         0.0767 
    104 H104       25.8043   21.9574    0.1220 H         1 UNK         0.3013 
    105 H105       26.9573   27.4800    2.4759 H         1 UNK         0.3121 
    106 H106       26.0936   29.4565    4.3340 H         1 UNK         0.0774 
    107 H107       24.5919   30.1313    2.4451 H         1 UNK         0.0815 
    108 H108       25.5098   29.1128    1.3424 H         1 UNK         0.0815 
    109 H109       24.5960   28.3891    2.6652 H         1 UNK         0.0815 
    110 H110       28.7185   29.6237    2.0252 H         1 UNK         0.2987 
    111 H111       28.5784   32.5434    1.6568 H         1 UNK         0.0949 
    112 H112       30.6968   30.5143    0.7663 H         1 UNK         0.0806 
    113 H113       29.3303   31.0483   -0.2078 H         1 UNK         0.0806 
    114 H114       30.5783   32.1919    0.2675 H         1 UNK         0.0806 
    115 H115       28.5165   32.7197    4.0593 H         1 UNK         0.3010 
    116 H116       30.4057   31.9471    5.8622 H         1 UNK         0.0829 
    117 H117       29.4726   33.7566    7.3237 H         1 UNK         0.0813 
    118 H118       28.7216   34.5070    5.9218 H         1 UNK         0.0813 
    119 H119       28.2056   32.9068    6.4564 H         1 UNK         0.0813 
    120 H120       30.9260   34.5387    3.6048 H         1 UNK         0.3038 
    121 H121       33.1246   35.8276    4.9826 H         1 UNK         0.0769 
    122 H122       33.4674   36.9254    2.7676 H         1 UNK         0.0811 
    123 H123       31.7811   37.0035    3.2469 H         1 UNK         0.0811 
    124 H124       32.3008   35.8398    2.0261 H         1 UNK         0.0811 
    125 H125       32.8454   32.8162    3.2657 H         1 UNK         0.3204 
    126 H126       35.8050   32.4957    3.1605 H         1 UNK         0.0748 
    127 H127       35.4725   31.2806    0.9718 H         1 UNK         0.0771 
    128 H128       33.7930   31.8250    0.9342 H         1 UNK         0.0771 
    129 H129       35.1048   32.9908    0.8554 H         1 UNK         0.0771 
    130 H130       33.6324   30.0846    1.9554 H         1 UNK         0.2980 
    131 H131       34.4852   28.1680    3.9006 H         1 UNK         0.0545 
    132 H132       31.6939   30.3193    4.0458 H         1 UNK         0.3459 
    133 H133       30.9310   29.4477    5.3635 H         1 UNK         0.3459 
    134 H134       32.5037   26.8402    2.5213 H         1 UNK         0.0616 
    135 H135       32.7600   28.1455    1.4240 H         1 UNK         0.0616 
    136 H136       34.9641   25.6432    3.6631 H         1 UNK         0.0634 
    137 H137       35.7212   24.7432    2.3765 H         1 UNK         0.0634 
@<TRIPOS>BOND
     1    1    2 1    
     2    1   72 1    
     3    1   73 1    
     4    1   74 1    
     5    2    3 2    
     6    2    4 am   BACKBONE|DICT|INTERRES
     7    4    5 1    
     8    4   75 1    
     9    5    6 1    
    10    5   35 1    
    11    5   76 1    
    12    6    7 1    
    13    6   77 1    
    14    6   78 1    
    15    7    8 1    
    16    8    9 1    
    17    8   79 1    
    18    8   80 1    
    19    9   10 ar   
    20    9   14 ar   
    21   10   11 ar   
    22   10   81 1    
    23   11   12 ar   
    24   11   71 1    
    25   12   13 ar   
    26   12   82 1    
    27   13   14 ar   
    28   13   15 1    
    29   14   83 1    
    30   15   16 1    
    31   15   84 1    
    32   15   85 1    
    33   16   17 1    
    34   17   18 1    
    35   17   86 1    
    36   17   87 1    
    37   18   19 1    
    38   18   37 1    
    39   18   88 1    
    40   19   20 am   BACKBONE|DICT|INTERRES
    41   19   89 1    
    42   20   21 2    
    43   20   22 1    
    44   22   23 1    
    45   22   24 1    
    46   22   90 1    
    47   23   91 1    
    48   23   92 1    
    49   23   93 1    
    50   24   25 am   BACKBONE|DICT|INTERRES
    51   24   94 1    
    52   25   26 2    
    53   25   27 1    
    54   27   28 1    
    55   27   29 1    
    56   27   95 1    
    57   28   96 1    
    58   28   97 1    
    59   28   98 1    
    60   29   30 am   BACKBONE|DICT|INTERRES
    61   29   99 1    
    62   30   31 2    
    63   30   32 1    
    64   32   33 1    
    65   32   34 1    
    66   32  100 1    
    67   33  101 1    
    68   33  102 1    
    69   33  103 1    
    70   34   35 am   BACKBONE|DICT|INTERRES
    71   34  104 1    
    72   35   36 2    
    73   37   38 2    
    74   37   39 am   BACKBONE|DICT|INTERRES
    75   39   40 1    
    76   39  105 1    
    77   40   41 1    
    78   40   42 1    
    79   40  106 1    
    80   41  107 1    
    81   41  108 1    
    82   41  109 1    
    83   42   43 2    
    84   42   44 am   BACKBONE|DICT|INTERRES
    85   44   45 1    
    86   44  110 1    
    87   45   46 1    
    88   45   47 1    
    89   45  111 1    
    90   46  112 1    
    91   46  113 1    
    92   46  114 1    
    93   47   48 2    
    94   47   49 am   BACKBONE|DICT|INTERRES
    95   49   50 1    
    96   49  115 1    
    97   50   51 1    
    98   50   52 1    
    99   50  116 1    
   100   51  117 1    
   101   51  118 1    
   102   51  119 1    
   103   52   53 2    
   104   52   54 am   BACKBONE|DICT|INTERRES
   105   54   55 1    
   106   54  120 1    
   107   55   56 1    
   108   55   57 1    
   109   55  121 1    
   110   56  122 1    
   111   56  123 1    
   112   56  124 1    
   113   57   58 2    
   114   57   59 am   BACKBONE|DICT|INTERRES
   115   59   60 1    
   116   59  125 1    
   117   60   61 1    
   118   60   62 1    
   119   60  126 1    
   120   61  127 1    
   121   61  128 1    
   122   61  129 1    
   123   62   63 2    
   124   62   64 am   BACKBONE|DICT|INTERRES
   125   64   65 1    
   126   64  130 1    
   127   65   66 1    
   128   65   69 1    
   129   65  131 1    
   130   66   67 am   BACKBONE|DICT|INTERRES
   131   66   68 2    
   132   67  132 1    
   133   67  133 1    
   134   69   70 1    
   135   69  134 1    
   136   69  135 1    
   137   70   71 1    
   138   71  136 1    
   139   71  137 1    
@<TRIPOS>SUBSTRUCTURE
     1 UNK         1 GROUP             0       ****    0 ROOT    
