@<TRIPOS>MOLECULE
3R136
137   139    1
SMALL
USER_CHARGES


@<TRIPOS>ATOM
      1 CA         29.1387   20.1196   -2.6450 C.3       0 UNK        -0.1979 
      2 C          29.5739   21.3511   -1.8653 C.2       0 UNK         0.4864 
      3 O          29.6766   22.4360   -2.4400 O.2       0 UNK        -0.5359 
      4 N          29.8166   21.1989   -0.5553 N.am      1 UNK        -0.4318 
      5 CA         30.2621   22.2699    0.3475 C.3       1 UNK         0.0824 
      6 C6         30.8676   21.7039    1.6568 C.3       12 UNK        -0.0944 
      7 S7         29.6722   20.8091    2.7165 S.3       12 UNK        -0.2672 
      8 C8         30.3864   21.0240    4.3846 C.3       12 UNK         0.0333 
      9 C9         30.5528   22.4905    4.7605 C.ar      12 UNK        -0.0807 
     10 C10        31.8290   23.0416    4.8987 C.ar      12 UNK        -0.0894 
     11 C11        31.9895   24.4046    5.1618 C.ar      12 UNK        -0.0804 
     12 C12        30.8612   25.2215    5.2894 C.ar      12 UNK        -0.0824 
     13 C13        29.5764   24.6792    5.1708 C.ar      12 UNK        -0.0762 
     14 C14        29.4326   23.3070    4.9296 C.ar      12 UNK        -0.0782 
     15 C15        28.3499   25.5807    5.2731 C.3       12 UNK         0.0230 
     16 S16        27.2072   25.2896    3.8858 S.3       12 UNK        -0.2608 
     17 C17        26.2950   26.8594    3.7342 C.3       12 UNK        -0.0989 
     18 CA         27.1419   28.0779    3.2683 C.3       5 UNK         0.0716 
     19 N          28.2532   27.7299    2.3785 N.am      5 UNK        -0.4135 
     20 C          29.2390   28.5631    2.0180 C.2       4 UNK         0.5031 
     21 O          29.3285   29.7294    2.3991 O.2       4 UNK        -0.5229 
     22 CA         30.2706   28.0163    1.0221 C.3       4 UNK         0.0329 
     23 CB         31.3527   27.2040    1.7529 C.3       4 UNK        -0.2001 
     24 N          29.6370   27.2027   -0.0194 N.am      4 UNK        -0.4303 
     25 C          28.8365   27.7067   -0.9731 C.2       3 UNK         0.5044 
     26 O          28.5972   28.9076   -1.0961 O.2       3 UNK        -0.5152 
     27 CA         28.1477   26.7121   -1.9257 C.3       3 UNK         0.0319 
     28 CB         29.0492   26.4092   -3.1323 C.3       3 UNK        -0.2001 
     29 N          27.7611   25.4555   -1.2824 N.am      3 UNK        -0.4354 
     30 C          26.9213   25.3493   -0.2419 C.2       2 UNK         0.4964 
     31 O          26.3197   26.3045    0.2512 O.2       2 UNK        -0.5047 
     32 CA         26.7539   23.9514    0.3819 C.3       2 UNK         0.0288 
     33 CB         25.5328   23.2433   -0.2255 C.3       2 UNK        -0.2113 
     34 N          27.9249   23.0726    0.2658 N.am      2 UNK        -0.4145 
     35 C          29.1932   23.3589    0.6079 C.2       1 UNK         0.5006 
     36 O          29.5460   24.4460    1.0670 O.2       1 UNK        -0.5103 
     37 C          26.2392   29.1487    2.6273 C.2       5 UNK         0.5055 
     38 O          25.8935   30.1268    3.2897 O.2       5 UNK        -0.5220 
     39 N          25.9093   28.9571    1.3402 N.am      6 UNK        -0.4450 
     40 CA         25.1275   29.8859    0.5193 C.3       6 UNK         0.0367 
     41 CB         24.8311   29.2391   -0.8429 C.3       6 UNK        -0.1929 
     42 C          25.8105   31.2520    0.3334 C.2       6 UNK         0.5070 
     43 O          25.1324   32.2784    0.3788 O.2       6 UNK        -0.5237 
     44 N          27.1392   31.2452    0.1588 N.am      7 UNK        -0.4739 
     45 CA         27.9749   32.4479    0.0905 C.3       7 UNK         0.0276 
     46 CB         29.3254   32.0770   -0.5450 C.3       7 UNK        -0.1927 
     47 C          28.2037   33.1214    1.4578 C.2       7 UNK         0.5013 
     48 O          28.6620   34.2645    1.4837 O.2       7 UNK        -0.5193 
     49 N          27.9152   32.4006    2.5531 N.am      8 UNK        -0.4253 
     50 CA         28.2116   32.7300    3.9527 C.3       8 UNK         0.0242 
     51 CB         27.3783   33.9396    4.4267 C.3       8 UNK        -0.2000 
     52 C          29.7254   32.8953    4.1965 C.2       8 UNK         0.4948 
     53 O          30.1456   33.8291    4.8836 O.2       8 UNK        -0.5275 
     54 N          30.5140   31.9934    3.6010 N.am      9 UNK        -0.4246 
     55 CA         31.9727   31.9947    3.6169 C.3       9 UNK         0.0261 
     56 CB         32.4685   31.8417    2.1686 C.3       9 UNK        -0.1959 
     57 C          32.4975   30.8369    4.4742 C.2       9 UNK         0.5033 
     58 O          31.8348   29.8038    4.5976 O.2       9 UNK        -0.5390 
     59 N          33.7085   31.0163    5.0120 N.am      10 UNK        -0.4215 
     60 CA         34.4871   29.9571    5.6514 C.3       10 UNK         0.0240 
     61 CB         35.4285   30.5817    6.6947 C.3       10 UNK        -0.1982 
     62 C          35.2911   29.1967    4.5859 C.2       10 UNK         0.4970 
     63 O          35.7079   29.7976    3.5920 O.2       10 UNK        -0.4916 
     64 N          35.5210   27.9029    4.8288 N.am      11 UNK        -0.4279 
     65 CA         36.3019   27.0213    3.9442 C.3       11 UNK         0.1003 
     66 C          37.8456   27.1853    4.0726 C.2       11 UNK         0.5709 
     67 N          38.3619   27.9341    5.0406 N.am      11 UNK        -0.7358 
     68 O          38.5907   26.6292    3.2691 O.2       11 UNK        -0.4999 
     69 C69        35.8808   25.5378    4.1028 C.3       12 UNK        -0.0954 
     70 S70        34.1355   25.2498    3.6555 S.3       12 UNK        -0.2268 
     71 C71        33.3885   24.9834    5.2915 C.3       12 UNK         0.0203 
     72 H72        29.8463   19.9159   -3.4482 H         1 UNK         0.0888 
     73 H73        29.0814   19.2347   -2.0113 H         1 UNK         0.0888 
     74 H74        28.1572   20.2837   -3.0889 H         1 UNK         0.0888 
     75 H75        29.7061   20.2901   -0.1265 H         1 UNK         0.3017 
     76 H76        31.0741   22.7873   -0.1686 H         1 UNK         0.0873 
     77 H77        31.6864   21.0225    1.4212 H         1 UNK         0.0745 
     78 H78        31.3249   22.5208    2.2153 H         1 UNK         0.0745 
     79 H79        29.7367   20.5379    5.1136 H         1 UNK         0.0705 
     80 H80        31.3429   20.5006    4.4286 H         1 UNK         0.0705 
     81 H81        32.7031   22.4171    4.7721 H         1 UNK         0.1334 
     82 H82        30.9859   26.2808    5.4702 H         1 UNK         0.1417 
     83 H83        28.4451   22.8796    4.8204 H         1 UNK         0.1562 
     84 H84        28.6517   26.6287    5.2804 H         1 UNK         0.0748 
     85 H85        27.8338   25.3931    6.2154 H         1 UNK         0.0748 
     86 H86        25.8095   27.0814    4.6864 H         1 UNK         0.0940 
     87 H87        25.4836   26.6569    3.0312 H         1 UNK         0.0940 
     88 H88        27.5896   28.5266    4.1577 H         1 UNK         0.0703 
     89 H89        28.2565   26.7841    2.0220 H         1 UNK         0.3081 
     90 H90        30.7548   28.8681    0.5398 H         1 UNK         0.0719 
     91 H91        31.8710   27.8220    2.4880 H         1 UNK         0.0809 
     92 H92        30.9331   26.3523    2.2901 H         1 UNK         0.0809 
     93 H93        32.1045   26.8253    1.0608 H         1 UNK         0.0809 
     94 H94        29.7262   26.1956    0.0737 H         1 UNK         0.2990 
     95 H95        27.2352   27.1869   -2.2917 H         1 UNK         0.0690 
     96 H96        29.3416   27.3286   -3.6418 H         1 UNK         0.0788 
     97 H97        28.5367   25.7838   -3.8636 H         1 UNK         0.0788 
     98 H98        29.9640   25.8950   -2.8341 H         1 UNK         0.0788 
     99 H99        28.2128   24.6156   -1.6179 H         1 UNK         0.2993 
    100 H100       26.5636   24.0925    1.4446 H         1 UNK         0.0949 
    101 H101       25.3250   22.3019    0.2838 H         1 UNK         0.0767 
    102 H102       24.6382   23.8614   -0.1350 H         1 UNK         0.0767 
    103 H103       25.6762   23.0292   -1.2855 H         1 UNK         0.0767 
    104 H104       27.7515   22.1502   -0.1048 H         1 UNK         0.3013 
    105 H105       26.1979   28.0884    0.8942 H         1 UNK         0.3121 
    106 H106       24.1781   30.0576    1.0309 H         1 UNK         0.0774 
    107 H107       24.2148   29.8940   -1.4602 H         1 UNK         0.0815 
    108 H108       25.7465   29.0330   -1.3984 H         1 UNK         0.0815 
    109 H109       24.2916   28.2988   -0.7274 H         1 UNK         0.0815 
    110 H110       27.6169   30.3550    0.0592 H         1 UNK         0.2987 
    111 H111       27.4804   33.1782   -0.5537 H         1 UNK         0.0949 
    112 H112       29.8628   31.3419    0.0556 H         1 UNK         0.0806 
    113 H113       29.1931   31.6603   -1.5437 H         1 UNK         0.0806 
    114 H114       29.9687   32.9526   -0.6417 H         1 UNK         0.0806 
    115 H115       27.5521   31.4674    2.4039 H         1 UNK         0.3010 
    116 H116       27.9017   31.8640    4.5398 H         1 UNK         0.0829 
    117 H117       27.6701   34.8588    3.9179 H         1 UNK         0.0813 
    118 H118       26.3147   33.7802    4.2494 H         1 UNK         0.0813 
    119 H119       27.5072   34.1061    5.4967 H         1 UNK         0.0813 
    120 H120       30.0802   31.1945    3.1370 H         1 UNK         0.3038 
    121 H121       32.3498   32.9364    4.0215 H         1 UNK         0.0769 
    122 H122       32.1268   30.9056    1.7241 H         1 UNK         0.0811 
    123 H123       33.5584   31.8465    2.1217 H         1 UNK         0.0811 
    124 H124       32.1120   32.6585    1.5404 H         1 UNK         0.0811 
    125 H125       34.2058   31.8719    4.8093 H         1 UNK         0.3204 
    126 H126       33.8140   29.2622    6.1591 H         1 UNK         0.0748 
    127 H127       35.9983   29.8133    7.2187 H         1 UNK         0.0771 
    128 H128       36.1456   31.2652    6.2373 H         1 UNK         0.0771 
    129 H129       34.8702   31.1378    7.4483 H         1 UNK         0.0771 
    130 H130       35.1713   27.4856    5.6776 H         1 UNK         0.2980 
    131 H131       36.0725   27.3047    2.9149 H         1 UNK         0.0545 
    132 H132       39.3628   28.0334    5.1053 H         1 UNK         0.3459 
    133 H133       37.7644   28.3995    5.7035 H         1 UNK         0.3459 
    134 H134       36.0724   25.1908    5.1195 H         1 UNK         0.0616 
    135 H135       36.4796   24.8994    3.4504 H         1 UNK         0.0616 
    136 H136       34.0074   24.2981    5.8727 H         1 UNK         0.0634 
    137 H137       33.3669   25.9270    5.8384 H         1 UNK         0.0634 
@<TRIPOS>BOND
     1    1    2 1    
     2    1   72 1    
     3    1   73 1    
     4    1   74 1    
     5    2    3 2    
     6    2    4 am   BACKBONE|DICT|INTERRES
     7    4    5 1    
     8    4   75 1    
     9    5    6 1    
    10    5   35 1    
    11    5   76 1    
    12    6    7 1    
    13    6   77 1    
    14    6   78 1    
    15    7    8 1    
    16    8    9 1    
    17    8   79 1    
    18    8   80 1    
    19    9   10 ar   
    20    9   14 ar   
    21   10   11 ar   
    22   10   81 1    
    23   11   12 ar   
    24   11   71 1    
    25   12   13 ar   
    26   12   82 1    
    27   13   14 ar   
    28   13   15 1    
    29   14   83 1    
    30   15   16 1    
    31   15   84 1    
    32   15   85 1    
    33   16   17 1    
    34   17   18 1    
    35   17   86 1    
    36   17   87 1    
    37   18   19 1    
    38   18   37 1    
    39   18   88 1    
    40   19   20 am   BACKBONE|DICT|INTERRES
    41   19   89 1    
    42   20   21 2    
    43   20   22 1    
    44   22   23 1    
    45   22   24 1    
    46   22   90 1    
    47   23   91 1    
    48   23   92 1    
    49   23   93 1    
    50   24   25 am   BACKBONE|DICT|INTERRES
    51   24   94 1    
    52   25   26 2    
    53   25   27 1    
    54   27   28 1    
    55   27   29 1    
    56   27   95 1    
    57   28   96 1    
    58   28   97 1    
    59   28   98 1    
    60   29   30 am   BACKBONE|DICT|INTERRES
    61   29   99 1    
    62   30   31 2    
    63   30   32 1    
    64   32   33 1    
    65   32   34 1    
    66   32  100 1    
    67   33  101 1    
    68   33  102 1    
    69   33  103 1    
    70   34   35 am   BACKBONE|DICT|INTERRES
    71   34  104 1    
    72   35   36 2    
    73   37   38 2    
    74   37   39 am   BACKBONE|DICT|INTERRES
    75   39   40 1    
    76   39  105 1    
    77   40   41 1    
    78   40   42 1    
    79   40  106 1    
    80   41  107 1    
    81   41  108 1    
    82   41  109 1    
    83   42   43 2    
    84   42   44 am   BACKBONE|DICT|INTERRES
    85   44   45 1    
    86   44  110 1    
    87   45   46 1    
    88   45   47 1    
    89   45  111 1    
    90   46  112 1    
    91   46  113 1    
    92   46  114 1    
    93   47   48 2    
    94   47   49 am   BACKBONE|DICT|INTERRES
    95   49   50 1    
    96   49  115 1    
    97   50   51 1    
    98   50   52 1    
    99   50  116 1    
   100   51  117 1    
   101   51  118 1    
   102   51  119 1    
   103   52   53 2    
   104   52   54 am   BACKBONE|DICT|INTERRES
   105   54   55 1    
   106   54  120 1    
   107   55   56 1    
   108   55   57 1    
   109   55  121 1    
   110   56  122 1    
   111   56  123 1    
   112   56  124 1    
   113   57   58 2    
   114   57   59 am   BACKBONE|DICT|INTERRES
   115   59   60 1    
   116   59  125 1    
   117   60   61 1    
   118   60   62 1    
   119   60  126 1    
   120   61  127 1    
   121   61  128 1    
   122   61  129 1    
   123   62   63 2    
   124   62   64 am   BACKBONE|DICT|INTERRES
   125   64   65 1    
   126   64  130 1    
   127   65   66 1    
   128   65   69 1    
   129   65  131 1    
   130   66   67 am   BACKBONE|DICT|INTERRES
   131   66   68 2    
   132   67  132 1    
   133   67  133 1    
   134   69   70 1    
   135   69  134 1    
   136   69  135 1    
   137   70   71 1    
   138   71  136 1    
   139   71  137 1    
@<TRIPOS>SUBSTRUCTURE
     1 UNK         1 GROUP             0       ****    0 ROOT    
