@<TRIPOS>MOLECULE
3R136
137   139    1
SMALL
USER_CHARGES


@<TRIPOS>ATOM
      1 CA         25.3539   26.0236    2.8554 C.3       0 UNK        -0.1979 
      2 C          26.4669   25.0846    2.4170 C.2       0 UNK         0.4864 
      3 O          27.1502   25.3702    1.4308 O.2       0 UNK        -0.5359 
      4 N          26.6471   23.9751    3.1477 N.am      1 UNK        -0.4318 
      5 CA         27.6237   22.9083    2.8961 C.3       1 UNK         0.0824 
      6 C6         29.1014   23.3601    3.0726 C.3       12 UNK        -0.0944 
      7 S7         29.4687   24.0171    4.7361 S.3       12 UNK        -0.2672 
      8 C8         31.2537   23.6328    4.9022 C.3       12 UNK         0.0333 
      9 C9         32.1347   24.1222    3.7491 C.ar      12 UNK        -0.0807 
     10 C10        33.3157   23.4398    3.4465 C.ar      12 UNK        -0.0894 
     11 C11        34.1217   23.8475    2.3789 C.ar      12 UNK        -0.0804 
     12 C12        33.7269   24.9311    1.5884 C.ar      12 UNK        -0.0824 
     13 C13        32.5525   25.6310    1.8787 C.ar      12 UNK        -0.0762 
     14 C14        31.7894   25.2387    2.9828 C.ar      12 UNK        -0.0782 
     15 C15        32.1327   26.8126    1.0049 C.3       12 UNK         0.0230 
     16 S16        30.3585   26.7965    0.5622 S.3       12 UNK        -0.2608 
     17 C17        29.6040   27.6433    1.9959 C.3       12 UNK        -0.0989 
     18 CA         28.6440   28.7737    1.5683 C.3       5 UNK         0.0716 
     19 N          27.4907   28.2504    0.8225 N.am      5 UNK        -0.4135 
     20 C          26.5764   28.9937    0.1821 C.2       4 UNK         0.5031 
     21 O          26.5621   30.2255    0.2153 O.2       4 UNK        -0.5229 
     22 CA         25.5094   28.2299   -0.6163 C.3       4 UNK         0.0329 
     23 CB         24.6977   29.1401   -1.5577 C.3       4 UNK        -0.2001 
     24 N          26.1515   27.1715   -1.3930 N.am      4 UNK        -0.4303 
     25 C          25.7645   25.8923   -1.4435 C.2       3 UNK         0.5044 
     26 O          24.7670   25.4510   -0.8705 O.2       3 UNK        -0.5152 
     27 CA         26.6336   24.9360   -2.2719 C.3       3 UNK         0.0319 
     28 CB         27.7635   25.6201   -3.0755 C.3       3 UNK        -0.2001 
     29 N          27.2056   23.9242   -1.3865 N.am      3 UNK        -0.4354 
     30 C          27.4841   22.6664   -1.7563 C.2       2 UNK         0.4964 
     31 O          27.2254   22.2175   -2.8745 O.2       2 UNK        -0.5047 
     32 CA         28.1986   21.7467   -0.7477 C.3       2 UNK         0.0288 
     33 CB         29.6209   21.4188   -1.2356 C.3       2 UNK        -0.2113 
     34 N          28.2940   22.3110    0.5981 N.am      2 UNK        -0.4145 
     35 C          27.3360   22.2417    1.5316 C.2       1 UNK         0.5006 
     36 O          26.2525   21.6798    1.3550 O.2       1 UNK        -0.5103 
     37 C          28.2633   29.6436    2.7857 C.2       5 UNK         0.5055 
     38 O          29.1042   30.4084    3.2548 O.2       5 UNK        -0.5220 
     39 N          27.0084   29.5618    3.2520 N.am      6 UNK        -0.4450 
     40 CA         26.4353   30.4204    4.2933 C.3       6 UNK         0.0367 
     41 CB         25.0280   29.9117    4.6454 C.3       6 UNK        -0.1929 
     42 C          26.3901   31.9145    3.9117 C.2       6 UNK         0.5070 
     43 O          26.3551   32.7596    4.8057 O.2       6 UNK        -0.5237 
     44 N          26.4148   32.2196    2.6054 N.am      7 UNK        -0.4739 
     45 CA         26.5261   33.5791    2.0702 C.3       7 UNK         0.0276 
     46 CB         25.9376   33.5976    0.6491 C.3       7 UNK        -0.1927 
     47 C          27.9725   34.1173    2.0640 C.2       7 UNK         0.5013 
     48 O          28.1634   35.2950    1.7560 O.2       7 UNK        -0.5193 
     49 N          28.9589   33.2663    2.3756 N.am      8 UNK        -0.4253 
     50 CA         30.3838   33.5825    2.3999 C.3       8 UNK         0.0242 
     51 CB         31.0448   33.0272    1.1197 C.3       8 UNK        -0.2000 
     52 C          30.9717   33.0404    3.7127 C.2       8 UNK         0.4948 
     53 O          30.5578   33.4904    4.7830 O.2       8 UNK        -0.5275 
     54 N          31.9093   32.0923    3.6216 N.am      9 UNK        -0.4246 
     55 CA         32.5120   31.3687    4.7349 C.3       9 UNK         0.0261 
     56 CB         33.7014   32.1681    5.2985 C.3       9 UNK        -0.1959 
     57 C          32.9578   29.9942    4.2218 C.2       9 UNK         0.5033 
     58 O          33.1160   29.8192    3.0095 O.2       9 UNK        -0.5390 
     59 N          33.1623   29.0513    5.1495 N.am      10 UNK        -0.4215 
     60 CA         33.6706   27.7073    4.8648 C.3       10 UNK         0.0240 
     61 CB         33.3590   26.7871    6.0571 C.3       10 UNK        -0.1982 
     62 C          35.1768   27.7059    4.5500 C.2       10 UNK         0.4970 
     63 O          35.8798   28.6572    4.9018 O.2       10 UNK        -0.4916 
     64 N          35.6436   26.6265    3.9090 N.am      11 UNK        -0.4279 
     65 CA         37.0582   26.3998    3.5783 C.3       11 UNK         0.1003 
     66 C          37.9857   26.2594    4.8218 C.2       11 UNK         0.5709 
     67 N          39.2765   26.5207    4.6612 N.am      11 UNK        -0.7358 
     68 O          37.5583   25.8929    5.9158 O.2       11 UNK        -0.4999 
     69 C69        37.2339   25.2301    2.5707 C.3       12 UNK        -0.0954 
     70 S70        36.7482   23.5864    3.2092 S.3       12 UNK        -0.2268 
     71 C71        35.4107   23.1017    2.0745 C.3       12 UNK         0.0203 
     72 H72        24.7349   25.5826    3.6365 H         1 UNK         0.0888 
     73 H73        25.7756   26.9491    3.2415 H         1 UNK         0.0888 
     74 H74        24.7084   26.2587    2.0100 H         1 UNK         0.0888 
     75 H75        26.0348   23.8065    3.9331 H         1 UNK         0.3017 
     76 H76        27.4295   22.1376    3.6437 H         1 UNK         0.0873 
     77 H77        29.7752   22.5200    2.8920 H         1 UNK         0.0745 
     78 H78        29.3559   24.1297    2.3426 H         1 UNK         0.0745 
     79 H79        31.6188   24.0716    5.8313 H         1 UNK         0.0705 
     80 H80        31.3562   22.5518    5.0096 H         1 UNK         0.0705 
     81 H81        33.6122   22.5871    4.0427 H         1 UNK         0.1334 
     82 H82        34.3385   25.2324    0.7487 H         1 UNK         0.1417 
     83 H83        30.9014   25.7888    3.2395 H         1 UNK         0.1562 
     84 H84        32.6992   26.8016    0.0727 H         1 UNK         0.0748 
     85 H85        32.3923   27.7476    1.5009 H         1 UNK         0.0748 
     86 H86        30.3992   28.0418    2.6302 H         1 UNK         0.0940 
     87 H87        29.0703   26.9075    2.6000 H         1 UNK         0.0940 
     88 H88        29.1864   29.4352    0.8890 H         1 UNK         0.0703 
     89 H89        27.4227   27.2363    0.7778 H         1 UNK         0.3081 
     90 H90        24.8242   27.8001    0.1163 H         1 UNK         0.0719 
     91 H91        25.3365   29.6315   -2.2925 H         1 UNK         0.0809 
     92 H92        23.9390   28.5738   -2.0979 H         1 UNK         0.0809 
     93 H93        24.1805   29.9213   -0.9988 H         1 UNK         0.0809 
     94 H94        26.9985   27.4325   -1.8793 H         1 UNK         0.2990 
     95 H95        25.9540   24.4574   -2.9802 H         1 UNK         0.0690 
     96 H96        28.2855   24.8984   -3.7042 H         1 UNK         0.0788 
     97 H97        28.5076   26.0810   -2.4240 H         1 UNK         0.0788 
     98 H98        27.3704   26.3887   -3.7424 H         1 UNK         0.0788 
     99 H99        27.3726   24.2191   -0.4295 H         1 UNK         0.2993 
    100 H100       27.6302   20.8150   -0.7032 H         1 UNK         0.0949 
    101 H101       30.1214   20.7229   -0.5618 H         1 UNK         0.0767 
    102 H102       29.5999   20.9521   -2.2214 H         1 UNK         0.0767 
    103 H103       30.2379   22.3152   -1.3127 H         1 UNK         0.0767 
    104 H104       29.1398   22.8194    0.8124 H         1 UNK         0.3013 
    105 H105       26.3754   28.9276    2.7907 H         1 UNK         0.3121 
    106 H106       27.0661   30.3321    5.1804 H         1 UNK         0.0774 
    107 H107       24.3564   29.9528    3.7868 H         1 UNK         0.0815 
    108 H108       24.5818   30.5170    5.4359 H         1 UNK         0.0815 
    109 H109       25.0543   28.8832    5.0057 H         1 UNK         0.0815 
    110 H110       26.4391   31.4682    1.9232 H         1 UNK         0.2987 
    111 H111       25.9335   34.2537    2.6922 H         1 UNK         0.0949 
    112 H112       26.5097   32.9662   -0.0319 H         1 UNK         0.0806 
    113 H113       24.9049   33.2486    0.6414 H         1 UNK         0.0806 
    114 H114       25.9405   34.6074    0.2365 H         1 UNK         0.0806 
    115 H115       28.7221   32.3289    2.6852 H         1 UNK         0.3010 
    116 H116       30.5324   34.6642    2.4219 H         1 UNK         0.0829 
    117 H117       30.6137   33.4870    0.2302 H         1 UNK         0.0813 
    118 H118       32.1144   33.2410    1.0995 H         1 UNK         0.0813 
    119 H119       30.9128   31.9481    1.0258 H         1 UNK         0.0813 
    120 H120       32.1571   31.7149    2.7146 H         1 UNK         0.3038 
    121 H121       31.7618   31.2179    5.5144 H         1 UNK         0.0769 
    122 H122       34.4684   32.3327    4.5406 H         1 UNK         0.0811 
    123 H123       34.1721   31.6419    6.1298 H         1 UNK         0.0811 
    124 H124       33.3845   33.1423    5.6712 H         1 UNK         0.0811 
    125 H125       33.0531   29.2947    6.1232 H         1 UNK         0.3204 
    126 H126       33.1459   27.3347    3.9869 H         1 UNK         0.0748 
    127 H127       33.8490   27.1287    6.9698 H         1 UNK         0.0771 
    128 H128       32.2867   26.7352    6.2477 H         1 UNK         0.0771 
    129 H129       33.7001   25.7683    5.8679 H         1 UNK         0.0771 
    130 H130       35.0155   25.8664    3.6895 H         1 UNK         0.2980 
    131 H131       37.3854   27.3050    3.0627 H         1 UNK         0.0545 
    132 H132       39.8964   26.4252    5.4503 H         1 UNK         0.3459 
    133 H133       39.6439   26.8120    3.7687 H         1 UNK         0.3459 
    134 H134       36.6729   25.4477    1.6613 H         1 UNK         0.0616 
    135 H135       38.2757   25.1655    2.2524 H         1 UNK         0.0616 
    136 H136       35.7254   23.2636    1.0423 H         1 UNK         0.0634 
    137 H137       35.2393   22.0289    2.1746 H         1 UNK         0.0634 
@<TRIPOS>BOND
     1    1    2 1    
     2    1   72 1    
     3    1   73 1    
     4    1   74 1    
     5    2    3 2    
     6    2    4 am   BACKBONE|DICT|INTERRES
     7    4    5 1    
     8    4   75 1    
     9    5    6 1    
    10    5   35 1    
    11    5   76 1    
    12    6    7 1    
    13    6   77 1    
    14    6   78 1    
    15    7    8 1    
    16    8    9 1    
    17    8   79 1    
    18    8   80 1    
    19    9   10 ar   
    20    9   14 ar   
    21   10   11 ar   
    22   10   81 1    
    23   11   12 ar   
    24   11   71 1    
    25   12   13 ar   
    26   12   82 1    
    27   13   14 ar   
    28   13   15 1    
    29   14   83 1    
    30   15   16 1    
    31   15   84 1    
    32   15   85 1    
    33   16   17 1    
    34   17   18 1    
    35   17   86 1    
    36   17   87 1    
    37   18   19 1    
    38   18   37 1    
    39   18   88 1    
    40   19   20 am   BACKBONE|DICT|INTERRES
    41   19   89 1    
    42   20   21 2    
    43   20   22 1    
    44   22   23 1    
    45   22   24 1    
    46   22   90 1    
    47   23   91 1    
    48   23   92 1    
    49   23   93 1    
    50   24   25 am   BACKBONE|DICT|INTERRES
    51   24   94 1    
    52   25   26 2    
    53   25   27 1    
    54   27   28 1    
    55   27   29 1    
    56   27   95 1    
    57   28   96 1    
    58   28   97 1    
    59   28   98 1    
    60   29   30 am   BACKBONE|DICT|INTERRES
    61   29   99 1    
    62   30   31 2    
    63   30   32 1    
    64   32   33 1    
    65   32   34 1    
    66   32  100 1    
    67   33  101 1    
    68   33  102 1    
    69   33  103 1    
    70   34   35 am   BACKBONE|DICT|INTERRES
    71   34  104 1    
    72   35   36 2    
    73   37   38 2    
    74   37   39 am   BACKBONE|DICT|INTERRES
    75   39   40 1    
    76   39  105 1    
    77   40   41 1    
    78   40   42 1    
    79   40  106 1    
    80   41  107 1    
    81   41  108 1    
    82   41  109 1    
    83   42   43 2    
    84   42   44 am   BACKBONE|DICT|INTERRES
    85   44   45 1    
    86   44  110 1    
    87   45   46 1    
    88   45   47 1    
    89   45  111 1    
    90   46  112 1    
    91   46  113 1    
    92   46  114 1    
    93   47   48 2    
    94   47   49 am   BACKBONE|DICT|INTERRES
    95   49   50 1    
    96   49  115 1    
    97   50   51 1    
    98   50   52 1    
    99   50  116 1    
   100   51  117 1    
   101   51  118 1    
   102   51  119 1    
   103   52   53 2    
   104   52   54 am   BACKBONE|DICT|INTERRES
   105   54   55 1    
   106   54  120 1    
   107   55   56 1    
   108   55   57 1    
   109   55  121 1    
   110   56  122 1    
   111   56  123 1    
   112   56  124 1    
   113   57   58 2    
   114   57   59 am   BACKBONE|DICT|INTERRES
   115   59   60 1    
   116   59  125 1    
   117   60   61 1    
   118   60   62 1    
   119   60  126 1    
   120   61  127 1    
   121   61  128 1    
   122   61  129 1    
   123   62   63 2    
   124   62   64 am   BACKBONE|DICT|INTERRES
   125   64   65 1    
   126   64  130 1    
   127   65   66 1    
   128   65   69 1    
   129   65  131 1    
   130   66   67 am   BACKBONE|DICT|INTERRES
   131   66   68 2    
   132   67  132 1    
   133   67  133 1    
   134   69   70 1    
   135   69  134 1    
   136   69  135 1    
   137   70   71 1    
   138   71  136 1    
   139   71  137 1    
@<TRIPOS>SUBSTRUCTURE
     1 UNK         1 GROUP             0       ****    0 ROOT    
