@<TRIPOS>MOLECULE
3R136
137   139    1
SMALL
USER_CHARGES


@<TRIPOS>ATOM
      1 CA         27.7535   19.8550    4.0364 C.3       0 UNK        -0.1979 
      2 C          28.1212   20.5041    2.7104 C.2       0 UNK         0.4864 
      3 O          27.9338   19.8934    1.6574 O.2       0 UNK        -0.5359 
      4 N          28.6405   21.7384    2.7535 N.am      1 UNK        -0.4318 
      5 CA         29.0501   22.5231    1.5808 C.3       1 UNK         0.0824 
      6 C6         30.1009   23.5976    1.9521 C.3       12 UNK        -0.0944 
      7 S7         29.5765   24.7493    3.2731 S.3       12 UNK        -0.2672 
      8 C8         31.1714   25.0610    4.1099 C.3       12 UNK         0.0333 
      9 C9         32.2267   25.6495    3.1751 C.ar      12 UNK        -0.0807 
     10 C10        33.5267   25.1342    3.1710 C.ar      12 UNK        -0.0894 
     11 C11        34.4843   25.6231    2.2759 C.ar      12 UNK        -0.0804 
     12 C12        34.1199   26.6068    1.3511 C.ar      12 UNK        -0.0824 
     13 C13        32.8363   27.1546    1.3668 C.ar      12 UNK        -0.0762 
     14 C14        31.9079   26.6953    2.3034 C.ar      12 UNK        -0.0782 
     15 C15        32.4661   28.2594    0.3899 C.3       12 UNK         0.0230 
     16 S16        31.6821   27.6309   -1.1355 S.3       12 UNK        -0.2608 
     17 C17        30.0674   26.9579   -0.5958 C.3       12 UNK        -0.0989 
     18 CA         28.9566   28.0377   -0.4605 C.3       5 UNK         0.0716 
     19 N          27.7061   27.6284   -1.1092 N.am      5 UNK        -0.4135 
     20 C          27.2655   28.1205   -2.2777 C.2       4 UNK         0.5031 
     21 O          27.8635   28.9764   -2.9316 O.2       4 UNK        -0.5229 
     22 CA         25.9354   27.5765   -2.8366 C.3       4 UNK         0.0329 
     23 CB         26.2049   26.4806   -3.8807 C.3       4 UNK        -0.2001 
     24 N          25.0309   27.0476   -1.8163 N.am      4 UNK        -0.4303 
     25 C          24.4585   27.7642   -0.8395 C.2       3 UNK         0.5044 
     26 O          24.5546   28.9876   -0.7401 O.2       3 UNK        -0.5152 
     27 CA         23.6729   26.9824    0.2310 C.3       3 UNK         0.0319 
     28 CB         22.1633   27.0752   -0.0438 C.3       3 UNK        -0.2001 
     29 N          24.0456   25.5671    0.3832 N.am      3 UNK        -0.4354 
     30 C          25.2745   25.0896    0.6319 C.2       2 UNK         0.4964 
     31 O          26.2791   25.8023    0.6857 O.2       2 UNK        -0.5047 
     32 CA         25.3698   23.5678    0.8394 C.3       2 UNK         0.0288 
     33 CB         25.0051   22.7977   -0.4485 C.3       2 UNK        -0.2113 
     34 N          26.6639   23.1202    1.3743 N.am      2 UNK        -0.4145 
     35 C          27.8671   23.1120    0.7749 C.2       1 UNK         0.5006 
     36 O          28.0743   23.5142   -0.3721 O.2       1 UNK        -0.5103 
     37 C          28.7381   28.4568    1.0066 C.2       5 UNK         0.5055 
     38 O          29.5135   29.2706    1.5014 O.2       5 UNK        -0.5220 
     39 N          27.7047   27.9444    1.6942 N.am      6 UNK        -0.4450 
     40 CA         27.4390   28.1698    3.1256 C.3       6 UNK         0.0367 
     41 CB         26.2344   27.3241    3.5661 C.3       6 UNK        -0.1929 
     42 C          27.2629   29.6384    3.5688 C.2       6 UNK         0.5070 
     43 O          27.3450   29.9156    4.7650 O.2       6 UNK        -0.5237 
     44 N          27.0800   30.5650    2.6183 N.am      7 UNK        -0.4739 
     45 CA         27.1811   32.0125    2.8358 C.3       7 UNK         0.0276 
     46 CB         26.7254   32.7417    1.5618 C.3       7 UNK        -0.1927 
     47 C          28.5970   32.4772    3.2459 C.2       7 UNK         0.5013 
     48 O          28.7221   33.5280    3.8757 O.2       7 UNK        -0.5193 
     49 N          29.6253   31.6903    2.9008 N.am      8 UNK        -0.4253 
     50 CA         31.0281   31.8846    3.2606 C.3       8 UNK         0.0242 
     51 CB         31.8127   32.3308    2.0125 C.3       8 UNK        -0.2000 
     52 C          31.5781   30.5852    3.8746 C.2       8 UNK         0.4948 
     53 O          32.6580   30.1275    3.4937 O.2       8 UNK        -0.5275 
     54 N          30.8255   30.0132    4.8294 N.am      9 UNK        -0.4246 
     55 CA         31.0851   28.7202    5.4811 C.3       9 UNK         0.0261 
     56 CB         29.9446   28.3989    6.4617 C.3       9 UNK        -0.1959 
     57 C          32.4457   28.5718    6.1908 C.2       9 UNK         0.5033 
     58 O          32.8525   27.4451    6.4760 O.2       9 UNK        -0.5390 
     59 N          33.1274   29.6929    6.4583 N.am      10 UNK        -0.4215 
     60 CA         34.4873   29.7472    6.9967 C.3       10 UNK         0.0240 
     61 CB         34.7845   31.1881    7.4457 C.3       10 UNK        -0.1982 
     62 C          35.5736   29.2522    6.0188 C.2       10 UNK         0.4970 
     63 O          36.6964   29.0179    6.4676 O.2       10 UNK        -0.4916 
     64 N          35.2459   29.1154    4.7233 N.am      11 UNK        -0.4279 
     65 CA         36.1666   28.7049    3.6479 C.3       11 UNK         0.1003 
     66 C          37.2213   29.7948    3.2740 C.2       11 UNK         0.5709 
     67 N          36.9917   31.0640    3.5928 N.am      11 UNK        -0.7358 
     68 O          38.2513   29.5049    2.6703 O.2       11 UNK        -0.4999 
     69 C69        36.7723   27.2854    3.8899 C.3       12 UNK        -0.0954 
     70 S70        37.1747   26.3904    2.3480 S.3       12 UNK        -0.2268 
     71 C71        35.9070   25.0775    2.3044 C.3       12 UNK         0.0203 
     72 H72        28.3131   18.9294    4.1685 H         1 UNK         0.0888 
     73 H73        27.9707   20.5057    4.8834 H         1 UNK         0.0888 
     74 H74        26.6904   19.6165    4.0557 H         1 UNK         0.0888 
     75 H75        28.7776   22.1966    3.6442 H         1 UNK         0.3017 
     76 H76        29.5450   21.8330    0.8935 H         1 UNK         0.0873 
     77 H77        31.0124   23.0929    2.2763 H         1 UNK         0.0745 
     78 H78        30.3924   24.1743    1.0733 H         1 UNK         0.0745 
     79 H79        31.5228   24.1208    4.5376 H         1 UNK         0.0705 
     80 H80        31.0100   25.7324    4.9521 H         1 UNK         0.0705 
     81 H81        33.7930   24.3478    3.8640 H         1 UNK         0.1334 
     82 H82        34.8479   26.9679    0.6375 H         1 UNK         0.1417 
     83 H83        30.9198   27.1295    2.3328 H         1 UNK         0.1562 
     84 H84        33.3670   28.8041    0.1038 H         1 UNK         0.0748 
     85 H85        31.8363   29.0007    0.8743 H         1 UNK         0.0748 
     86 H86        30.1767   26.3557    0.3041 H         1 UNK         0.0940 
     87 H87        29.7855   26.2338   -1.3624 H         1 UNK         0.0940 
     88 H88        29.3090   28.9495   -0.9472 H         1 UNK         0.0703 
     89 H89        27.1584   26.9154   -0.6364 H         1 UNK         0.3081 
     90 H90        25.4269   28.4060   -3.3327 H         1 UNK         0.0719 
     91 H91        26.6939   25.6119   -3.4372 H         1 UNK         0.0809 
     92 H92        25.2813   26.1438   -4.3520 H         1 UNK         0.0809 
     93 H93        26.8551   26.8498   -4.6753 H         1 UNK         0.0809 
     94 H94        24.8881   26.0484   -1.8108 H         1 UNK         0.2990 
     95 H95        23.8713   27.4715    1.1857 H         1 UNK         0.0690 
     96 H96        21.5830   26.6330    0.7663 H         1 UNK         0.0788 
     97 H97        21.8901   26.5684   -0.9703 H         1 UNK         0.0788 
     98 H98        21.8448   28.1149   -0.1351 H         1 UNK         0.0788 
     99 H99        23.2811   24.9079    0.3428 H         1 UNK         0.2993 
    100 H100       24.6346   23.3113    1.6040 H         1 UNK         0.0949 
    101 H101       23.9721   22.9830   -0.7447 H         1 UNK         0.0767 
    102 H102       25.6373   23.0849   -1.2894 H         1 UNK         0.0767 
    103 H103       25.1078   21.7215   -0.3071 H         1 UNK         0.0767 
    104 H104       26.6408   22.7940    2.3294 H         1 UNK         0.3013 
    105 H105       27.1301   27.2259    1.2567 H         1 UNK         0.3121 
    106 H106       28.3152   27.7965    3.6591 H         1 UNK         0.0774 
    107 H107       26.0348   27.4491    4.6312 H         1 UNK         0.0815 
    108 H108       25.3288   27.6051    3.0297 H         1 UNK         0.0815 
    109 H109       26.4145   26.2621    3.3988 H         1 UNK         0.0815 
    110 H110       27.0181   30.2505    1.6608 H         1 UNK         0.2987 
    111 H111       26.5027   32.2792    3.6492 H         1 UNK         0.0949 
    112 H112       27.3629   32.5019    0.7097 H         1 UNK         0.0806 
    113 H113       25.7000   32.4805    1.2994 H         1 UNK         0.0806 
    114 H114       26.7578   33.8236    1.6989 H         1 UNK         0.0806 
    115 H115       29.4340   30.8265    2.3916 H         1 UNK         0.3010 
    116 H116       31.1220   32.6594    4.0241 H         1 UNK         0.0829 
    117 H117       31.4138   33.2601    1.6058 H         1 UNK         0.0813 
    118 H118       32.8631   32.5049    2.2497 H         1 UNK         0.0813 
    119 H119       31.7743   31.5765    1.2254 H         1 UNK         0.0813 
    120 H120       29.9509   30.4607    5.0689 H         1 UNK         0.3038 
    121 H121       31.0692   27.9766    4.6863 H         1 UNK         0.0769 
    122 H122       29.8313   29.1767    7.2175 H         1 UNK         0.0811 
    123 H123       30.1274   27.4596    6.9860 H         1 UNK         0.0811 
    124 H124       28.9922   28.2871    5.9473 H         1 UNK         0.0811 
    125 H125       32.7095   30.5707    6.1877 H         1 UNK         0.3204 
    126 H126       34.5270   29.0996    7.8751 H         1 UNK         0.0748 
    127 H127       35.7790   31.2634    7.8879 H         1 UNK         0.0771 
    128 H128       34.7460   31.8884    6.6103 H         1 UNK         0.0771 
    129 H129       34.0725   31.5241    8.2000 H         1 UNK         0.0771 
    130 H130       34.3085   29.3626    4.4207 H         1 UNK         0.2980 
    131 H131       35.5240   28.6395    2.7703 H         1 UNK         0.0545 
    132 H132       37.6711   31.7652    3.3437 H         1 UNK         0.3459 
    133 H133       36.1450   31.3258    4.0707 H         1 UNK         0.3459 
    134 H134       36.0732   26.6725    4.4612 H         1 UNK         0.0616 
    135 H135       37.6735   27.3476    4.5019 H         1 UNK         0.0616 
    136 H136       36.0557   24.4230    3.1646 H         1 UNK         0.0634 
    137 H137       36.0664   24.4645    1.4166 H         1 UNK         0.0634 
@<TRIPOS>BOND
     1    1    2 1    
     2    1   72 1    
     3    1   73 1    
     4    1   74 1    
     5    2    3 2    
     6    2    4 am   BACKBONE|DICT|INTERRES
     7    4    5 1    
     8    4   75 1    
     9    5    6 1    
    10    5   35 1    
    11    5   76 1    
    12    6    7 1    
    13    6   77 1    
    14    6   78 1    
    15    7    8 1    
    16    8    9 1    
    17    8   79 1    
    18    8   80 1    
    19    9   10 ar   
    20    9   14 ar   
    21   10   11 ar   
    22   10   81 1    
    23   11   12 ar   
    24   11   71 1    
    25   12   13 ar   
    26   12   82 1    
    27   13   14 ar   
    28   13   15 1    
    29   14   83 1    
    30   15   16 1    
    31   15   84 1    
    32   15   85 1    
    33   16   17 1    
    34   17   18 1    
    35   17   86 1    
    36   17   87 1    
    37   18   19 1    
    38   18   37 1    
    39   18   88 1    
    40   19   20 am   BACKBONE|DICT|INTERRES
    41   19   89 1    
    42   20   21 2    
    43   20   22 1    
    44   22   23 1    
    45   22   24 1    
    46   22   90 1    
    47   23   91 1    
    48   23   92 1    
    49   23   93 1    
    50   24   25 am   BACKBONE|DICT|INTERRES
    51   24   94 1    
    52   25   26 2    
    53   25   27 1    
    54   27   28 1    
    55   27   29 1    
    56   27   95 1    
    57   28   96 1    
    58   28   97 1    
    59   28   98 1    
    60   29   30 am   BACKBONE|DICT|INTERRES
    61   29   99 1    
    62   30   31 2    
    63   30   32 1    
    64   32   33 1    
    65   32   34 1    
    66   32  100 1    
    67   33  101 1    
    68   33  102 1    
    69   33  103 1    
    70   34   35 am   BACKBONE|DICT|INTERRES
    71   34  104 1    
    72   35   36 2    
    73   37   38 2    
    74   37   39 am   BACKBONE|DICT|INTERRES
    75   39   40 1    
    76   39  105 1    
    77   40   41 1    
    78   40   42 1    
    79   40  106 1    
    80   41  107 1    
    81   41  108 1    
    82   41  109 1    
    83   42   43 2    
    84   42   44 am   BACKBONE|DICT|INTERRES
    85   44   45 1    
    86   44  110 1    
    87   45   46 1    
    88   45   47 1    
    89   45  111 1    
    90   46  112 1    
    91   46  113 1    
    92   46  114 1    
    93   47   48 2    
    94   47   49 am   BACKBONE|DICT|INTERRES
    95   49   50 1    
    96   49  115 1    
    97   50   51 1    
    98   50   52 1    
    99   50  116 1    
   100   51  117 1    
   101   51  118 1    
   102   51  119 1    
   103   52   53 2    
   104   52   54 am   BACKBONE|DICT|INTERRES
   105   54   55 1    
   106   54  120 1    
   107   55   56 1    
   108   55   57 1    
   109   55  121 1    
   110   56  122 1    
   111   56  123 1    
   112   56  124 1    
   113   57   58 2    
   114   57   59 am   BACKBONE|DICT|INTERRES
   115   59   60 1    
   116   59  125 1    
   117   60   61 1    
   118   60   62 1    
   119   60  126 1    
   120   61  127 1    
   121   61  128 1    
   122   61  129 1    
   123   62   63 2    
   124   62   64 am   BACKBONE|DICT|INTERRES
   125   64   65 1    
   126   64  130 1    
   127   65   66 1    
   128   65   69 1    
   129   65  131 1    
   130   66   67 am   BACKBONE|DICT|INTERRES
   131   66   68 2    
   132   67  132 1    
   133   67  133 1    
   134   69   70 1    
   135   69  134 1    
   136   69  135 1    
   137   70   71 1    
   138   71  136 1    
   139   71  137 1    
@<TRIPOS>SUBSTRUCTURE
     1 UNK         1 GROUP             0       ****    0 ROOT    
