@<TRIPOS>MOLECULE
3R136
137   139    1
SMALL
USER_CHARGES


@<TRIPOS>ATOM
      1 CA         32.3807   23.4776   -2.0842 C.3       0 UNK        -0.1979 
      2 C          31.2355   24.3263   -1.5535 C.2       0 UNK         0.4864 
      3 O          31.1074   25.4880   -1.9380 O.2       0 UNK        -0.5359 
      4 N          30.4038   23.7552   -0.6708 N.am      1 UNK        -0.4318 
      5 CA         29.2691   24.4272   -0.0202 C.3       1 UNK         0.0824 
      6 C6         28.7211   23.6209    1.1846 C.3       12 UNK        -0.0944 
      7 S7         30.0171   23.1067    2.3609 S.3       12 UNK        -0.2672 
      8 C8         29.2139   23.3890    3.9743 C.3       12 UNK         0.0333 
      9 C9         29.4183   24.8025    4.5074 C.ar      12 UNK        -0.0807 
     10 C10        30.7073   25.3323    4.6182 C.ar      12 UNK        -0.0894 
     11 C11        30.9136   26.6048    5.1554 C.ar      12 UNK        -0.0804 
     12 C12        29.8164   27.3505    5.5971 C.ar      12 UNK        -0.0824 
     13 C13        28.5214   26.8250    5.5168 C.ar      12 UNK        -0.0762 
     14 C14        28.3292   25.5541    4.9609 C.ar      12 UNK        -0.0782 
     15 C15        27.3448   27.6049    6.0972 C.3       12 UNK         0.0230 
     16 S16        25.9692   27.8363    4.9236 S.3       12 UNK        -0.2608 
     17 C17        26.7530   28.8634    3.6392 C.3       12 UNK        -0.0989 
     18 CA         27.0355   28.0818    2.3268 C.3       5 UNK         0.0716 
     19 N          25.8149   27.6451    1.6498 N.am      5 UNK        -0.4135 
     20 C          25.3119   26.4067    1.6848 C.2       4 UNK         0.5031 
     21 O          25.7914   25.4869    2.3507 O.2       4 UNK        -0.5229 
     22 CA         24.0829   26.1203    0.8098 C.3       4 UNK         0.0329 
     23 CB         23.6766   27.2700   -0.1379 C.3       4 UNK        -0.2001 
     24 N          24.3859   24.9289    0.0283 N.am      4 UNK        -0.4303 
     25 C          23.5265   23.9621   -0.3100 C.2       3 UNK         0.5044 
     26 O          22.3293   23.9825   -0.0177 O.2       3 UNK        -0.5152 
     27 CA         24.1046   22.7574   -1.0868 C.3       3 UNK         0.0319 
     28 CB         23.0809   22.1313   -2.0584 C.3       3 UNK        -0.2001 
     29 N          25.3769   23.0415   -1.7695 N.am      3 UNK        -0.4354 
     30 C          25.5914   23.9324   -2.7517 C.2       2 UNK         0.4964 
     31 O          24.7026   24.6075   -3.2736 O.2       2 UNK        -0.5047 
     32 CA         27.0553   24.1080   -3.2039 C.3       2 UNK         0.0288 
     33 CB         27.2783   25.4184   -3.9873 C.3       2 UNK        -0.2113 
     34 N          28.0282   23.9924   -2.1062 N.am      2 UNK        -0.4145 
     35 C          28.1192   24.7513   -0.9998 C.2       1 UNK         0.5006 
     36 O          27.3416   25.6671   -0.7237 O.2       1 UNK        -0.5103 
     37 C          27.8794   28.8979    1.3317 C.2       5 UNK         0.5055 
     38 O          28.3373   29.9894    1.6686 O.2       5 UNK        -0.5220 
     39 N          28.0983   28.3732    0.1154 N.am      6 UNK        -0.4450 
     40 CA         28.9430   29.0266   -0.8984 C.3       6 UNK         0.0367 
     41 CB         28.7641   28.3315   -2.2551 C.3       6 UNK        -0.1929 
     42 C          30.4346   29.0967   -0.5095 C.2       6 UNK         0.5070 
     43 O          31.1630   29.9329   -1.0436 O.2       6 UNK        -0.5237 
     44 N          30.8502   28.2454    0.4367 N.am      7 UNK        -0.4739 
     45 CA         32.1925   28.1964    1.0131 C.3       7 UNK         0.0276 
     46 CB         32.5000   26.7393    1.4026 C.3       7 UNK        -0.1927 
     47 C          32.3790   29.1347    2.2216 C.2       7 UNK         0.5013 
     48 O          33.4476   29.0831    2.8311 O.2       7 UNK        -0.5193 
     49 N          31.3697   29.9553    2.5710 N.am      8 UNK        -0.4253 
     50 CA         31.3034   30.8102    3.7722 C.3       8 UNK         0.0242 
     51 CB         30.0773   31.7339    3.6979 C.3       8 UNK        -0.2000 
     52 C          32.5559   31.6439    4.0935 C.2       8 UNK         0.4948 
     53 O          32.8524   31.8396    5.2717 O.2       8 UNK        -0.5275 
     54 N          33.2909   32.0777    3.0606 N.am      9 UNK        -0.4246 
     55 CA         34.5721   32.7800    3.1781 C.3       9 UNK         0.0261 
     56 CB         35.0430   33.2066    1.7783 C.3       9 UNK        -0.1959 
     57 C          35.6757   31.9740    3.8939 C.2       9 UNK         0.5033 
     58 O          36.5631   32.5864    4.4901 O.2       9 UNK        -0.5390 
     59 N          35.6105   30.6351    3.8345 N.am      10 UNK        -0.4215 
     60 CA         36.5257   29.7384    4.5424 C.3       10 UNK         0.0240 
     61 CB         36.5726   28.3784    3.8258 C.3       10 UNK        -0.1982 
     62 C          36.1338   29.5528    6.0175 C.2       10 UNK         0.4970 
     63 O          37.0240   29.4420    6.8617 O.2       10 UNK        -0.4916 
     64 N          34.8251   29.5040    6.2993 N.am      11 UNK        -0.4279 
     65 CA         34.2777   29.3117    7.6523 C.3       11 UNK         0.1003 
     66 C          34.2142   30.6222    8.4823 C.2       11 UNK         0.5709 
     67 N          34.0046   31.7805    7.8702 N.am      11 UNK        -0.7358 
     68 O          34.3697   30.5867    9.7007 O.2       11 UNK        -0.4999 
     69 C69        32.9019   28.5954    7.6305 C.3       12 UNK        -0.0954 
     70 S70        33.0206   26.9142    6.9272 S.3       12 UNK        -0.2268 
     71 C71        32.3268   27.1563    5.2652 C.3       12 UNK         0.0203 
     72 H72        32.3758   22.4737   -1.6599 H         1 UNK         0.0888 
     73 H73        33.3350   23.9438   -1.8406 H         1 UNK         0.0888 
     74 H74        32.3110   23.3891   -3.1680 H         1 UNK         0.0888 
     75 H75        30.5790   22.8085   -0.3635 H         1 UNK         0.3017 
     76 H76        29.6371   25.3823    0.3594 H         1 UNK         0.0873 
     77 H77        28.2043   22.7197    0.8486 H         1 UNK         0.0745 
     78 H78        27.9800   24.2164    1.7197 H         1 UNK         0.0745 
     79 H79        28.1533   23.1424    3.9015 H         1 UNK         0.0705 
     80 H80        29.6390   22.6898    4.6955 H         1 UNK         0.0705 
     81 H81        31.5551   24.7453    4.2917 H         1 UNK         0.1334 
     82 H82        29.9771   28.3266    6.0332 H         1 UNK         0.1417 
     83 H83        27.3292   25.1450    4.9012 H         1 UNK         0.1562 
     84 H84        27.6647   28.5830    6.4600 H         1 UNK         0.0748 
     85 H85        26.9695   27.0664    6.9684 H         1 UNK         0.0748 
     86 H86        27.6773   29.2729    4.0502 H         1 UNK         0.0940 
     87 H87        26.1076   29.7211    3.4417 H         1 UNK         0.0940 
     88 H88        27.6483   27.2128    2.5763 H         1 UNK         0.0703 
     89 H89        25.3694   28.3319    1.0582 H         1 UNK         0.3081 
     90 H90        23.2547   25.9141    1.4909 H         1 UNK         0.0719 
     91 H91        24.4776   27.5262   -0.8334 H         1 UNK         0.0809 
     92 H92        22.8068   26.9921   -0.7337 H         1 UNK         0.0809 
     93 H93        23.4030   28.1688    0.4162 H         1 UNK         0.0809 
     94 H94        25.3605   24.8308   -0.2311 H         1 UNK         0.2990 
     95 H95        24.3351   22.0058   -0.3303 H         1 UNK         0.0690 
     96 H96        23.5051   21.2774   -2.5865 H         1 UNK         0.0788 
     97 H97        22.7357   22.8495   -2.8027 H         1 UNK         0.0788 
     98 H98        22.2008   21.7732   -1.5229 H         1 UNK         0.0788 
     99 H99        26.1777   22.5347   -1.4190 H         1 UNK         0.2993 
    100 H100       27.2610   23.2800   -3.8841 H         1 UNK         0.0949 
    101 H101       26.7040   25.4220   -4.9145 H         1 UNK         0.0767 
    102 H102       26.9621   26.2860   -3.4090 H         1 UNK         0.0767 
    103 H103       28.3269   25.5529   -4.2536 H         1 UNK         0.0767 
    104 H104       28.7220   23.2663   -2.2189 H         1 UNK         0.3013 
    105 H105       27.7005   27.4679   -0.1265 H         1 UNK         0.3121 
    106 H106       28.5952   30.0564   -1.0061 H         1 UNK         0.0774 
    107 H107       27.7219   28.3511   -2.5721 H         1 UNK         0.0815 
    108 H108       29.0935   27.2934   -2.2244 H         1 UNK         0.0815 
    109 H109       29.3469   28.8318   -3.0296 H         1 UNK         0.0815 
    110 H110       30.1740   27.6025    0.8184 H         1 UNK         0.2987 
    111 H111       32.9197   28.5052    0.2589 H         1 UNK         0.0949 
    112 H112       31.7883   26.3572    2.1344 H         1 UNK         0.0806 
    113 H113       32.4684   26.0845    0.5328 H         1 UNK         0.0806 
    114 H114       33.4973   26.6441    1.8346 H         1 UNK         0.0806 
    115 H115       30.5274   29.9311    2.0084 H         1 UNK         0.3010 
    116 H116       31.1543   30.1445    4.6226 H         1 UNK         0.0829 
    117 H117       29.1506   31.1704    3.7892 H         1 UNK         0.0813 
    118 H118       30.0772   32.4621    4.5108 H         1 UNK         0.0813 
    119 H119       30.0449   32.2903    2.7605 H         1 UNK         0.0813 
    120 H120       32.9739   31.8584    2.1274 H         1 UNK         0.3038 
    121 H121       34.3964   33.6809    3.7698 H         1 UNK         0.0769 
    122 H122       35.2079   32.3462    1.1284 H         1 UNK         0.0811 
    123 H123       35.9830   33.7576    1.8339 H         1 UNK         0.0811 
    124 H124       34.3158   33.8598    1.2955 H         1 UNK         0.0811 
    125 H125       34.8351   30.1941    3.3416 H         1 UNK         0.3204 
    126 H126       37.5303   30.1662    4.5137 H         1 UNK         0.0748 
    127 H127       36.8650   28.4897    2.7815 H         1 UNK         0.0771 
    128 H128       37.2991   27.7155    4.2977 H         1 UNK         0.0771 
    129 H129       35.6071   27.8715    3.8510 H         1 UNK         0.0771 
    130 H130       34.1577   29.6473    5.5571 H         1 UNK         0.2980 
    131 H131       34.9602   28.6529    8.1937 H         1 UNK         0.0545 
    132 H132       33.9734   32.6270    8.4147 H         1 UNK         0.3459 
    133 H133       33.7700   31.8073    6.8807 H         1 UNK         0.3459 
    134 H134       32.5146   28.4885    8.6455 H         1 UNK         0.0616 
    135 H135       32.1627   29.1872    7.0881 H         1 UNK         0.0616 
    136 H136       32.9815   26.6693    4.5410 H         1 UNK         0.0634 
    137 H137       32.3357   28.2132    5.0120 H         1 UNK         0.0634 
@<TRIPOS>BOND
     1    1    2 1    
     2    1   72 1    
     3    1   73 1    
     4    1   74 1    
     5    2    3 2    
     6    2    4 am   BACKBONE|DICT|INTERRES
     7    4    5 1    
     8    4   75 1    
     9    5    6 1    
    10    5   35 1    
    11    5   76 1    
    12    6    7 1    
    13    6   77 1    
    14    6   78 1    
    15    7    8 1    
    16    8    9 1    
    17    8   79 1    
    18    8   80 1    
    19    9   10 ar   
    20    9   14 ar   
    21   10   11 ar   
    22   10   81 1    
    23   11   12 ar   
    24   11   71 1    
    25   12   13 ar   
    26   12   82 1    
    27   13   14 ar   
    28   13   15 1    
    29   14   83 1    
    30   15   16 1    
    31   15   84 1    
    32   15   85 1    
    33   16   17 1    
    34   17   18 1    
    35   17   86 1    
    36   17   87 1    
    37   18   19 1    
    38   18   37 1    
    39   18   88 1    
    40   19   20 am   BACKBONE|DICT|INTERRES
    41   19   89 1    
    42   20   21 2    
    43   20   22 1    
    44   22   23 1    
    45   22   24 1    
    46   22   90 1    
    47   23   91 1    
    48   23   92 1    
    49   23   93 1    
    50   24   25 am   BACKBONE|DICT|INTERRES
    51   24   94 1    
    52   25   26 2    
    53   25   27 1    
    54   27   28 1    
    55   27   29 1    
    56   27   95 1    
    57   28   96 1    
    58   28   97 1    
    59   28   98 1    
    60   29   30 am   BACKBONE|DICT|INTERRES
    61   29   99 1    
    62   30   31 2    
    63   30   32 1    
    64   32   33 1    
    65   32   34 1    
    66   32  100 1    
    67   33  101 1    
    68   33  102 1    
    69   33  103 1    
    70   34   35 am   BACKBONE|DICT|INTERRES
    71   34  104 1    
    72   35   36 2    
    73   37   38 2    
    74   37   39 am   BACKBONE|DICT|INTERRES
    75   39   40 1    
    76   39  105 1    
    77   40   41 1    
    78   40   42 1    
    79   40  106 1    
    80   41  107 1    
    81   41  108 1    
    82   41  109 1    
    83   42   43 2    
    84   42   44 am   BACKBONE|DICT|INTERRES
    85   44   45 1    
    86   44  110 1    
    87   45   46 1    
    88   45   47 1    
    89   45  111 1    
    90   46  112 1    
    91   46  113 1    
    92   46  114 1    
    93   47   48 2    
    94   47   49 am   BACKBONE|DICT|INTERRES
    95   49   50 1    
    96   49  115 1    
    97   50   51 1    
    98   50   52 1    
    99   50  116 1    
   100   51  117 1    
   101   51  118 1    
   102   51  119 1    
   103   52   53 2    
   104   52   54 am   BACKBONE|DICT|INTERRES
   105   54   55 1    
   106   54  120 1    
   107   55   56 1    
   108   55   57 1    
   109   55  121 1    
   110   56  122 1    
   111   56  123 1    
   112   56  124 1    
   113   57   58 2    
   114   57   59 am   BACKBONE|DICT|INTERRES
   115   59   60 1    
   116   59  125 1    
   117   60   61 1    
   118   60   62 1    
   119   60  126 1    
   120   61  127 1    
   121   61  128 1    
   122   61  129 1    
   123   62   63 2    
   124   62   64 am   BACKBONE|DICT|INTERRES
   125   64   65 1    
   126   64  130 1    
   127   65   66 1    
   128   65   69 1    
   129   65  131 1    
   130   66   67 am   BACKBONE|DICT|INTERRES
   131   66   68 2    
   132   67  132 1    
   133   67  133 1    
   134   69   70 1    
   135   69  134 1    
   136   69  135 1    
   137   70   71 1    
   138   71  136 1    
   139   71  137 1    
@<TRIPOS>SUBSTRUCTURE
     1 UNK         1 GROUP             0       ****    0 ROOT    
