@<TRIPOS>MOLECULE
3R136
137   139    1
SMALL
USER_CHARGES


@<TRIPOS>ATOM
      1 CA         31.1981   26.4679   -2.1671 C.3       0 UNK        -0.1979 
      2 C          31.1122   25.0203   -1.7065 C.2       0 UNK         0.4864 
      3 O          31.5511   24.1201   -2.4225 O.2       0 UNK        -0.5359 
      4 N          30.5046   24.7900   -0.5353 N.am      1 UNK        -0.4318 
      5 CA         30.2868   23.5113    0.1632 C.3       1 UNK         0.0824 
      6 C6         31.5713   22.6925    0.4487 C.3       12 UNK        -0.0944 
      7 S7         32.7725   23.6087    1.4721 S.3       12 UNK        -0.2672 
      8 C8         32.5985   22.7913    3.0908 C.3       12 UNK         0.0333 
      9 C9         31.4633   23.3783    3.9198 C.ar      12 UNK        -0.0807 
     10 C10        31.7443   24.2974    4.9357 C.ar      12 UNK        -0.0894 
     11 C11        30.7199   24.7978    5.7440 C.ar      12 UNK        -0.0804 
     12 C12        29.4000   24.4004    5.5078 C.ar      12 UNK        -0.0824 
     13 C13        29.1004   23.5046    4.4764 C.ar      12 UNK        -0.0762 
     14 C14        30.1400   22.9798    3.7021 C.ar      12 UNK        -0.0782 
     15 C15        27.6611   23.0773    4.2147 C.3       12 UNK         0.0230 
     16 S16        26.8329   24.1414    2.9847 S.3       12 UNK        -0.2608 
     17 C17        26.4915   25.6503    3.9546 C.3       12 UNK        -0.0989 
     18 CA         27.4457   26.8059    3.5541 C.3       5 UNK         0.0716 
     19 N          27.2122   27.3020    2.1874 N.am      5 UNK        -0.4135 
     20 C          26.1855   28.0615    1.7762 C.2       4 UNK         0.5031 
     21 O          25.2218   28.3681    2.4789 O.2       4 UNK        -0.5229 
     22 CA         26.2524   28.6014    0.3390 C.3       4 UNK         0.0329 
     23 CB         27.5290   29.4351    0.0880 C.3       4 UNK        -0.2001 
     24 N          26.0548   27.5682   -0.6824 N.am      4 UNK        -0.4303 
     25 C          26.8686   26.5561   -1.0054 C.2       3 UNK         0.5044 
     26 O          27.9594   26.3389   -0.4638 O.2       3 UNK        -0.5152 
     27 CA         26.3802   25.6571   -2.1512 C.3       3 UNK         0.0319 
     28 CB         26.3991   26.4043   -3.4981 C.3       3 UNK        -0.2001 
     29 N          27.2483   24.4919   -2.2340 N.am      3 UNK        -0.4354 
     30 C          26.9263   23.2746   -2.6904 C.2       2 UNK         0.4964 
     31 O          25.8191   22.9872   -3.1466 O.2       2 UNK        -0.5047 
     32 CA         28.0268   22.1925   -2.6405 C.3       2 UNK         0.0288 
     33 CB         28.5152   21.8505   -4.0579 C.3       2 UNK        -0.2113 
     34 N          29.1753   22.6122   -1.8340 N.am      2 UNK        -0.4145 
     35 C          29.1969   22.6452   -0.4962 C.2       1 UNK         0.5006 
     36 O          28.3602   22.0834    0.2109 O.2       1 UNK        -0.5103 
     37 C          27.4767   27.9672    4.5774 C.2       5 UNK         0.5055 
     38 O          26.7995   27.9124    5.6064 O.2       5 UNK        -0.5220 
     39 N          28.2494   29.0126    4.2524 N.am      6 UNK        -0.4450 
     40 CA         28.4314   30.2188    5.0518 C.3       6 UNK         0.0367 
     41 CB         27.4333   31.2920    4.5829 C.3       6 UNK        -0.1929 
     42 C          29.8734   30.7120    4.8942 C.2       6 UNK         0.5070 
     43 O          30.5450   30.3578    3.9200 O.2       6 UNK        -0.5237 
     44 N          30.3143   31.5547    5.8373 N.am      7 UNK        -0.4739 
     45 CA         31.6570   32.1523    5.8903 C.3       7 UNK         0.0276 
     46 CB         31.8608   32.8049    7.2670 C.3       7 UNK        -0.1927 
     47 C          31.9627   33.1509    4.7599 C.2       7 UNK         0.5013 
     48 O          33.1261   33.5046    4.5681 O.2       7 UNK        -0.5193 
     49 N          30.9284   33.5654    4.0163 N.am      8 UNK        -0.4253 
     50 CA         31.0375   34.3546    2.7888 C.3       8 UNK         0.0242 
     51 CB         29.6382   34.8535    2.3914 C.3       8 UNK        -0.2000 
     52 C          31.6856   33.5850    1.6201 C.2       8 UNK         0.4948 
     53 O          32.1513   34.2267    0.6771 O.2       8 UNK        -0.5275 
     54 N          31.7029   32.2460    1.6875 N.am      9 UNK        -0.4246 
     55 CA         32.2985   31.3730    0.6829 C.3       9 UNK         0.0261 
     56 CB         31.2949   31.1188   -0.4643 C.3       9 UNK        -0.1959 
     57 C          32.8004   30.0946    1.3651 C.2       9 UNK         0.5033 
     58 O          33.9400   30.0670    1.8310 O.2       9 UNK        -0.5390 
     59 N          31.9341   29.0734    1.4010 N.am      10 UNK        -0.4215 
     60 CA         32.1696   27.6920    1.8354 C.3       10 UNK         0.0240 
     61 CB         30.8082   26.9987    1.9812 C.3       10 UNK        -0.1982 
     62 C          32.9700   27.5202    3.1368 C.2       10 UNK         0.4970 
     63 O          33.9150   26.7310    3.1608 O.2       10 UNK        -0.4916 
     64 N          32.5736   28.2482    4.1873 N.am      11 UNK        -0.4279 
     65 CA         33.1919   28.1563    5.5197 C.3       11 UNK         0.1003 
     66 C          34.4422   29.0666    5.6968 C.2       11 UNK         0.5709 
     67 N          34.8684   29.8285    4.6952 N.am      11 UNK        -0.7358 
     68 O          35.0456   29.0778    6.7669 O.2       11 UNK        -0.4999 
     69 C69        32.1722   28.3429    6.6790 C.3       12 UNK        -0.0954 
     70 S70        30.5949   27.4546    6.4543 S.3       12 UNK        -0.2268 
     71 C71        31.0373   25.7487    6.8880 C.3       12 UNK         0.0203 
     72 H72        30.7972   26.5655   -3.1757 H         1 UNK         0.0888 
     73 H73        30.6364   27.1381   -1.5165 H         1 UNK         0.0888 
     74 H74        32.2372   26.7955   -2.1788 H         1 UNK         0.0888 
     75 H75        30.0639   25.5773   -0.0786 H         1 UNK         0.3017 
     76 H76        29.8668   23.8093    1.1236 H         1 UNK         0.0873 
     77 H77        31.3240   21.7519    0.9436 H         1 UNK         0.0745 
     78 H78        32.0649   22.4100   -0.4822 H         1 UNK         0.0745 
     79 H79        33.5421   22.9019    3.6274 H         1 UNK         0.0705 
     80 H80        32.4573   21.7173    2.9626 H         1 UNK         0.0705 
     81 H81        32.7655   24.6088    5.1095 H         1 UNK         0.1334 
     82 H82        28.6077   24.7929    6.1302 H         1 UNK         0.1417 
     83 H83        29.9150   22.2608    2.9266 H         1 UNK         0.1562 
     84 H84        27.0886   23.0673    5.1434 H         1 UNK         0.0748 
     85 H85        27.6469   22.0506    3.8454 H         1 UNK         0.0748 
     86 H86        26.5811   25.4118    5.0152 H         1 UNK         0.0940 
     87 H87        25.4504   25.9404    3.8050 H         1 UNK         0.0940 
     88 H88        28.4534   26.3924    3.5686 H         1 UNK         0.0703 
     89 H89        27.8760   27.0127    1.4788 H         1 UNK         0.3081 
     90 H90        25.4073   29.2832    0.2284 H         1 UNK         0.0719 
     91 H91        27.4988   29.9113   -0.8920 H         1 UNK         0.0809 
     92 H92        28.4388   28.8378    0.1353 H         1 UNK         0.0809 
     93 H93        27.6249   30.2301    0.8289 H         1 UNK         0.0809 
     94 H94        25.1772   27.6326   -1.1797 H         1 UNK         0.2990 
     95 H95        25.3631   25.3338   -1.9198 H         1 UNK         0.0690 
     96 H96        26.0618   25.7624   -4.3122 H         1 UNK         0.0788 
     97 H97        27.4008   26.7582   -3.7460 H         1 UNK         0.0788 
     98 H98        25.7399   27.2729   -3.4822 H         1 UNK         0.0788 
     99 H99        28.1544   24.6331   -1.8083 H         1 UNK         0.2993 
    100 H100       27.5883   21.2960   -2.1966 H         1 UNK         0.0949 
    101 H101       28.9603   22.7159   -4.5509 H         1 UNK         0.0767 
    102 H102       29.2605   21.0550   -4.0387 H         1 UNK         0.0767 
    103 H103       27.6906   21.5058   -4.6835 H         1 UNK         0.0767 
    104 H104       29.9435   23.0708   -2.3185 H         1 UNK         0.3013 
    105 H105       28.8282   28.9750    3.4252 H         1 UNK         0.3121 
    106 H106       28.2638   29.9915    6.1070 H         1 UNK         0.0774 
    107 H107       27.5229   32.2036    5.1748 H         1 UNK         0.0815 
    108 H108       27.5915   31.5608    3.5375 H         1 UNK         0.0815 
    109 H109       26.4051   30.9435    4.6834 H         1 UNK         0.0815 
    110 H110       29.6898   31.7994    6.5934 H         1 UNK         0.2987 
    111 H111       32.3893   31.3516    5.7806 H         1 UNK         0.0949 
    112 H112       31.7511   32.0772    8.0712 H         1 UNK         0.0806 
    113 H113       32.8617   33.2304    7.3547 H         1 UNK         0.0806 
    114 H114       31.1476   33.6115    7.4411 H         1 UNK         0.0806 
    115 H115       30.0089   33.2336    4.2660 H         1 UNK         0.3010 
    116 H116       31.6675   35.2218    2.9981 H         1 UNK         0.0829 
    117 H117       29.1934   35.4610    3.1799 H         1 UNK         0.0813 
    118 H118       29.6854   35.4741    1.4954 H         1 UNK         0.0813 
    119 H119       28.9593   34.0265    2.1787 H         1 UNK         0.0813 
    120 H120       31.3316   31.7838    2.5113 H         1 UNK         0.3038 
    121 H121       33.1808   31.8589    0.2600 H         1 UNK         0.0769 
    122 H122       31.1186   32.0319   -1.0333 H         1 UNK         0.0811 
    123 H123       30.3270   30.7735   -0.1004 H         1 UNK         0.0811 
    124 H124       31.6757   30.3761   -1.1671 H         1 UNK         0.0811 
    125 H125       31.0229   29.2554    1.0110 H         1 UNK         0.3204 
    126 H126       32.7265   27.1958    1.0381 H         1 UNK         0.0748 
    127 H127       30.9255   25.9471    2.2475 H         1 UNK         0.0771 
    128 H128       30.2283   27.4700    2.7718 H         1 UNK         0.0771 
    129 H129       30.2273   27.0506    1.0624 H         1 UNK         0.0771 
    130 H130       31.8194   28.9191    4.0775 H         1 UNK         0.2980 
    131 H131       33.5747   27.1403    5.6310 H         1 UNK         0.0545 
    132 H132       35.6808   30.4075    4.8322 H         1 UNK         0.3459 
    133 H133       34.4145   29.8087    3.7881 H         1 UNK         0.3459 
    134 H134       32.6134   28.0285    7.6264 H         1 UNK         0.0616 
    135 H135       31.9265   29.3951    6.8087 H         1 UNK         0.0616 
    136 H136       30.4779   25.4541    7.7770 H         1 UNK         0.0634 
    137 H137       32.0925   25.6846    7.1569 H         1 UNK         0.0634 
@<TRIPOS>BOND
     1    1    2 1    
     2    1   72 1    
     3    1   73 1    
     4    1   74 1    
     5    2    3 2    
     6    2    4 am   BACKBONE|DICT|INTERRES
     7    4    5 1    
     8    4   75 1    
     9    5    6 1    
    10    5   35 1    
    11    5   76 1    
    12    6    7 1    
    13    6   77 1    
    14    6   78 1    
    15    7    8 1    
    16    8    9 1    
    17    8   79 1    
    18    8   80 1    
    19    9   10 ar   
    20    9   14 ar   
    21   10   11 ar   
    22   10   81 1    
    23   11   12 ar   
    24   11   71 1    
    25   12   13 ar   
    26   12   82 1    
    27   13   14 ar   
    28   13   15 1    
    29   14   83 1    
    30   15   16 1    
    31   15   84 1    
    32   15   85 1    
    33   16   17 1    
    34   17   18 1    
    35   17   86 1    
    36   17   87 1    
    37   18   19 1    
    38   18   37 1    
    39   18   88 1    
    40   19   20 am   BACKBONE|DICT|INTERRES
    41   19   89 1    
    42   20   21 2    
    43   20   22 1    
    44   22   23 1    
    45   22   24 1    
    46   22   90 1    
    47   23   91 1    
    48   23   92 1    
    49   23   93 1    
    50   24   25 am   BACKBONE|DICT|INTERRES
    51   24   94 1    
    52   25   26 2    
    53   25   27 1    
    54   27   28 1    
    55   27   29 1    
    56   27   95 1    
    57   28   96 1    
    58   28   97 1    
    59   28   98 1    
    60   29   30 am   BACKBONE|DICT|INTERRES
    61   29   99 1    
    62   30   31 2    
    63   30   32 1    
    64   32   33 1    
    65   32   34 1    
    66   32  100 1    
    67   33  101 1    
    68   33  102 1    
    69   33  103 1    
    70   34   35 am   BACKBONE|DICT|INTERRES
    71   34  104 1    
    72   35   36 2    
    73   37   38 2    
    74   37   39 am   BACKBONE|DICT|INTERRES
    75   39   40 1    
    76   39  105 1    
    77   40   41 1    
    78   40   42 1    
    79   40  106 1    
    80   41  107 1    
    81   41  108 1    
    82   41  109 1    
    83   42   43 2    
    84   42   44 am   BACKBONE|DICT|INTERRES
    85   44   45 1    
    86   44  110 1    
    87   45   46 1    
    88   45   47 1    
    89   45  111 1    
    90   46  112 1    
    91   46  113 1    
    92   46  114 1    
    93   47   48 2    
    94   47   49 am   BACKBONE|DICT|INTERRES
    95   49   50 1    
    96   49  115 1    
    97   50   51 1    
    98   50   52 1    
    99   50  116 1    
   100   51  117 1    
   101   51  118 1    
   102   51  119 1    
   103   52   53 2    
   104   52   54 am   BACKBONE|DICT|INTERRES
   105   54   55 1    
   106   54  120 1    
   107   55   56 1    
   108   55   57 1    
   109   55  121 1    
   110   56  122 1    
   111   56  123 1    
   112   56  124 1    
   113   57   58 2    
   114   57   59 am   BACKBONE|DICT|INTERRES
   115   59   60 1    
   116   59  125 1    
   117   60   61 1    
   118   60   62 1    
   119   60  126 1    
   120   61  127 1    
   121   61  128 1    
   122   61  129 1    
   123   62   63 2    
   124   62   64 am   BACKBONE|DICT|INTERRES
   125   64   65 1    
   126   64  130 1    
   127   65   66 1    
   128   65   69 1    
   129   65  131 1    
   130   66   67 am   BACKBONE|DICT|INTERRES
   131   66   68 2    
   132   67  132 1    
   133   67  133 1    
   134   69   70 1    
   135   69  134 1    
   136   69  135 1    
   137   70   71 1    
   138   71  136 1    
   139   71  137 1    
@<TRIPOS>SUBSTRUCTURE
     1 UNK         1 GROUP             0       ****    0 ROOT    
