@<TRIPOS>MOLECULE
3R136
137   139    1
SMALL
USER_CHARGES


@<TRIPOS>ATOM
      1 CA         27.8766   22.1585    4.7447 C.3       0 UNK        -0.1979 
      2 C          27.5075   22.2230    3.2706 C.2       0 UNK         0.4864 
      3 O          27.3060   23.3200    2.7499 O.2       0 UNK        -0.5359 
      4 N          27.4245   21.0569    2.6099 N.am      1 UNK        -0.4318 
      5 CA         27.1099   20.8383    1.1882 C.3       1 UNK         0.0824 
      6 C6         28.3619   20.8663    0.2595 C.3       12 UNK        -0.0944 
      7 S7         29.2774   22.4468    0.1854 S.3       12 UNK        -0.2672 
      8 C8         30.7398   22.0348    1.1877 C.3       12 UNK         0.0333 
      9 C9         31.6625   23.2335    1.3402 C.ar      12 UNK        -0.0807 
     10 C10        31.7269   23.9328    2.5497 C.ar      12 UNK        -0.0894 
     11 C11        32.5706   25.0404    2.6832 C.ar      12 UNK        -0.0804 
     12 C12        33.3549   25.4442    1.5979 C.ar      12 UNK        -0.0824 
     13 C13        33.3058   24.7463    0.3882 C.ar      12 UNK        -0.0762 
     14 C14        32.4600   23.6400    0.2673 C.ar      12 UNK        -0.0782 
     15 C15        34.1875   25.1596   -0.7807 C.3       12 UNK         0.0230 
     16 S16        33.2138   25.7544   -2.1993 S.3       12 UNK        -0.2608 
     17 C17        32.7573   27.4456   -1.6932 C.3       12 UNK        -0.0989 
     18 CA         31.2255   27.6088   -1.5361 C.3       5 UNK         0.0716 
     19 N          30.7096   26.9193   -0.3444 N.am      5 UNK        -0.4135 
     20 C          29.4087   26.7185   -0.0855 C.2       4 UNK         0.5031 
     21 O          28.5155   26.9577   -0.9002 O.2       4 UNK        -0.5229 
     22 CA         29.0827   26.1740    1.3200 C.3       4 UNK         0.0329 
     23 CB         29.5782   27.1243    2.4316 C.3       4 UNK        -0.2001 
     24 N          27.6716   25.8357    1.5330 N.am      4 UNK        -0.4303 
     25 C          26.6032   26.6472    1.5471 C.2       3 UNK         0.5044 
     26 O          26.6495   27.8712    1.4098 O.2       3 UNK        -0.5152 
     27 CA         25.2489   25.9484    1.7860 C.3       3 UNK         0.0319 
     28 CB         24.0366   26.8948    1.6445 C.3       3 UNK        -0.2001 
     29 N          25.0883   24.7454    0.9580 N.am      3 UNK        -0.4354 
     30 C          25.0498   24.6745   -0.3818 C.2       2 UNK         0.4964 
     31 O          25.0549   25.6582   -1.1231 O.2       2 UNK        -0.5047 
     32 CA         25.0097   23.2588   -0.9938 C.3       2 UNK         0.0288 
     33 CB         25.1897   23.2657   -2.5244 C.3       2 UNK        -0.2113 
     34 N          26.0353   22.3929   -0.4075 N.am      2 UNK        -0.4145 
     35 C          25.8875   21.6508    0.6967 C.2       1 UNK         0.5006 
     36 O          24.8323   21.5945    1.3334 O.2       1 UNK        -0.5103 
     37 C          30.8329   29.1036   -1.5539 C.2       5 UNK         0.5055 
     38 O          30.6247   29.6622   -2.6320 O.2       5 UNK        -0.5220 
     39 N          30.7172   29.7127   -0.3686 N.am      6 UNK        -0.4450 
     40 CA         30.1804   31.0465   -0.1412 C.3       6 UNK         0.0367 
     41 CB         31.2915   32.1038   -0.2643 C.3       6 UNK        -0.1929 
     42 C          29.5717   31.0133    1.2608 C.2       6 UNK         0.5070 
     43 O          30.3034   30.7467    2.2172 O.2       6 UNK        -0.5237 
     44 N          28.2531   31.2255    1.3547 N.am      7 UNK        -0.4739 
     45 CA         27.4650   31.1105    2.5863 C.3       7 UNK         0.0276 
     46 CB         25.9881   31.4060    2.2784 C.3       7 UNK        -0.1927 
     47 C          27.9865   32.0314    3.7002 C.2       7 UNK         0.5013 
     48 O          28.0939   33.2399    3.4820 O.2       7 UNK        -0.5193 
     49 N          28.3478   31.4328    4.8440 N.am      8 UNK        -0.4253 
     50 CA         28.9564   32.0265    6.0462 C.3       8 UNK         0.0242 
     51 CB         28.0293   33.0824    6.6809 C.3       8 UNK        -0.2000 
     52 C          30.3829   32.5859    5.8602 C.2       8 UNK         0.4948 
     53 O          31.1494   32.5808    6.8241 O.2       8 UNK        -0.5275 
     54 N          30.7187   33.0617    4.6549 N.am      9 UNK        -0.4246 
     55 CA         32.0283   33.5986    4.2898 C.3       9 UNK         0.0261 
     56 CB         31.9111   34.3800    2.9720 C.3       9 UNK        -0.1959 
     57 C          33.1108   32.5124    4.1898 C.2       9 UNK         0.5033 
     58 O          34.2208   32.7268    4.6811 O.2       9 UNK        -0.5390 
     59 N          32.7827   31.3732    3.5643 N.am      10 UNK        -0.4215 
     60 CA         33.6706   30.2138    3.4772 C.3       10 UNK         0.0240 
     61 CB         33.2920   29.3696    2.2504 C.3       10 UNK        -0.1982 
     62 C          33.5928   29.3788    4.7650 C.2       10 UNK         0.4970 
     63 O          32.5413   29.3397    5.4078 O.2       10 UNK        -0.4916 
     64 N          34.7042   28.7076    5.0934 N.am      11 UNK        -0.4279 
     65 CA         34.8929   27.8666    6.2923 C.3       11 UNK         0.1003 
     66 C          34.8873   28.6476    7.6443 C.2       11 UNK         0.5709 
     67 N          35.0083   29.9702    7.6491 N.am      11 UNK        -0.7358 
     68 O          34.8123   28.0456    8.7132 O.2       11 UNK        -0.4999 
     69 C69        33.9709   26.6102    6.3234 C.3       12 UNK        -0.0954 
     70 S70        34.1894   25.5228    4.8745 S.3       12 UNK        -0.2268 
     71 C71        32.6266   25.8111    3.9933 C.3       12 UNK         0.0203 
     72 H72        28.0461   21.1356    5.0804 H         1 UNK         0.0888 
     73 H73        28.7860   22.7306    4.9263 H         1 UNK         0.0888 
     74 H74        27.0776   22.5872    5.3490 H         1 UNK         0.0888 
     75 H75        27.5733   20.2069    3.1350 H         1 UNK         0.3017 
     76 H76        26.7503   19.8086    1.1548 H         1 UNK         0.0873 
     77 H77        29.0505   20.0820    0.5776 H         1 UNK         0.0745 
     78 H78        28.0845   20.5865   -0.7585 H         1 UNK         0.0745 
     79 H79        31.2834   21.2142    0.7172 H         1 UNK         0.0705 
     80 H80        30.4170   21.6738    2.1653 H         1 UNK         0.0705 
     81 H81        31.1130   23.6204    3.3836 H         1 UNK         0.1334 
     82 H82        34.0210   26.2882    1.7057 H         1 UNK         0.1417 
     83 H83        32.4163   23.0984   -0.6683 H         1 UNK         0.1562 
     84 H84        34.7728   24.2958   -1.0993 H         1 UNK         0.0748 
     85 H85        34.9106   25.9215   -0.4850 H         1 UNK         0.0748 
     86 H86        33.1380   28.1130   -2.4697 H         1 UNK         0.0940 
     87 H87        33.2783   27.7278   -0.7765 H         1 UNK         0.0940 
     88 H88        30.7455   27.1572   -2.4074 H         1 UNK         0.0703 
     89 H89        31.3968   26.6040    0.3245 H         1 UNK         0.3081 
     90 H90        29.6161   25.2303    1.4149 H         1 UNK         0.0719 
     91 H91        29.1057   28.1046    2.3717 H         1 UNK         0.0809 
     92 H92        29.3737   26.7146    3.4207 H         1 UNK         0.0809 
     93 H93        30.6522   27.2835    2.3702 H         1 UNK         0.0809 
     94 H94        27.5003   24.8507    1.7314 H         1 UNK         0.2990 
     95 H95        25.2703   25.5999    2.8198 H         1 UNK         0.0690 
     96 H96        23.0998   26.3725    1.8380 H         1 UNK         0.0788 
     97 H97        23.9778   27.3348    0.6487 H         1 UNK         0.0788 
     98 H98        24.1021   27.7182    2.3569 H         1 UNK         0.0788 
     99 H99        25.1085   23.8680    1.4648 H         1 UNK         0.2993 
    100 H100       24.0205   22.8481   -0.7793 H         1 UNK         0.0949 
    101 H101       24.4089   23.8540   -3.0086 H         1 UNK         0.0767 
    102 H102       26.1502   23.6933   -2.8153 H         1 UNK         0.0767 
    103 H103       25.1329   22.2573   -2.9348 H         1 UNK         0.0767 
    104 H104       26.9591   22.4450   -0.8164 H         1 UNK         0.3013 
    105 H105       30.8833   29.1845    0.4764 H         1 UNK         0.3121 
    106 H106       29.3982   31.2579   -0.8739 H         1 UNK         0.0774 
    107 H107       30.8911   33.1054   -0.1055 H         1 UNK         0.0815 
    108 H108       32.0865   31.9458    0.4651 H         1 UNK         0.0815 
    109 H109       31.7426   32.0902   -1.2565 H         1 UNK         0.0815 
    110 H110       27.7355   31.4417    0.5153 H         1 UNK         0.2987 
    111 H111       27.5386   30.0735    2.9206 H         1 UNK         0.0949 
    112 H112       25.8508   32.4146    1.8864 H         1 UNK         0.0806 
    113 H113       25.5880   30.7013    1.5489 H         1 UNK         0.0806 
    114 H114       25.3772   31.3191    3.1779 H         1 UNK         0.0806 
    115 H115       28.2591   30.4266    4.8812 H         1 UNK         0.3010 
    116 H116       29.0481   31.2045    6.7582 H         1 UNK         0.0829 
    117 H117       27.0398   32.6723    6.8830 H         1 UNK         0.0813 
    118 H118       28.4345   33.4334    7.6309 H         1 UNK         0.0813 
    119 H119       27.9068   33.9568    6.0412 H         1 UNK         0.0813 
    120 H120       29.9939   33.0745    3.9445 H         1 UNK         0.3038 
    121 H121       32.3343   34.2983    5.0705 H         1 UNK         0.0769 
    122 H122       32.8783   34.7815    2.6666 H         1 UNK         0.0811 
    123 H123       31.2267   35.2227    3.0714 H         1 UNK         0.0811 
    124 H124       31.5470   33.7488    2.1622 H         1 UNK         0.0811 
    125 H125       31.8333   31.2429    3.2198 H         1 UNK         0.3204 
    126 H126       34.6967   30.5637    3.3435 H         1 UNK         0.0748 
    127 H127       33.9920   28.5454    2.1186 H         1 UNK         0.0771 
    128 H128       32.2940   28.9455    2.3498 H         1 UNK         0.0771 
    129 H129       33.3175   29.9628    1.3365 H         1 UNK         0.0771 
    130 H130       35.5184   28.7990    4.5033 H         1 UNK         0.2980 
    131 H131       35.9162   27.4985    6.2126 H         1 UNK         0.0545 
    132 H132       35.0708   30.4844    6.7850 H         1 UNK         0.3459 
    133 H133       35.0154   30.4600    8.5297 H         1 UNK         0.3459 
    134 H134       34.1919   25.9998    7.2005 H         1 UNK         0.0616 
    135 H135       32.9236   26.8991    6.4211 H         1 UNK         0.0616 
    136 H136       31.7930   25.5330    4.6401 H         1 UNK         0.0634 
    137 H137       32.5187   26.8754    3.7915 H         1 UNK         0.0634 
@<TRIPOS>BOND
     1    1    2 1    
     2    1   72 1    
     3    1   73 1    
     4    1   74 1    
     5    2    3 2    
     6    2    4 am   BACKBONE|DICT|INTERRES
     7    4    5 1    
     8    4   75 1    
     9    5    6 1    
    10    5   35 1    
    11    5   76 1    
    12    6    7 1    
    13    6   77 1    
    14    6   78 1    
    15    7    8 1    
    16    8    9 1    
    17    8   79 1    
    18    8   80 1    
    19    9   10 ar   
    20    9   14 ar   
    21   10   11 ar   
    22   10   81 1    
    23   11   12 ar   
    24   11   71 1    
    25   12   13 ar   
    26   12   82 1    
    27   13   14 ar   
    28   13   15 1    
    29   14   83 1    
    30   15   16 1    
    31   15   84 1    
    32   15   85 1    
    33   16   17 1    
    34   17   18 1    
    35   17   86 1    
    36   17   87 1    
    37   18   19 1    
    38   18   37 1    
    39   18   88 1    
    40   19   20 am   BACKBONE|DICT|INTERRES
    41   19   89 1    
    42   20   21 2    
    43   20   22 1    
    44   22   23 1    
    45   22   24 1    
    46   22   90 1    
    47   23   91 1    
    48   23   92 1    
    49   23   93 1    
    50   24   25 am   BACKBONE|DICT|INTERRES
    51   24   94 1    
    52   25   26 2    
    53   25   27 1    
    54   27   28 1    
    55   27   29 1    
    56   27   95 1    
    57   28   96 1    
    58   28   97 1    
    59   28   98 1    
    60   29   30 am   BACKBONE|DICT|INTERRES
    61   29   99 1    
    62   30   31 2    
    63   30   32 1    
    64   32   33 1    
    65   32   34 1    
    66   32  100 1    
    67   33  101 1    
    68   33  102 1    
    69   33  103 1    
    70   34   35 am   BACKBONE|DICT|INTERRES
    71   34  104 1    
    72   35   36 2    
    73   37   38 2    
    74   37   39 am   BACKBONE|DICT|INTERRES
    75   39   40 1    
    76   39  105 1    
    77   40   41 1    
    78   40   42 1    
    79   40  106 1    
    80   41  107 1    
    81   41  108 1    
    82   41  109 1    
    83   42   43 2    
    84   42   44 am   BACKBONE|DICT|INTERRES
    85   44   45 1    
    86   44  110 1    
    87   45   46 1    
    88   45   47 1    
    89   45  111 1    
    90   46  112 1    
    91   46  113 1    
    92   46  114 1    
    93   47   48 2    
    94   47   49 am   BACKBONE|DICT|INTERRES
    95   49   50 1    
    96   49  115 1    
    97   50   51 1    
    98   50   52 1    
    99   50  116 1    
   100   51  117 1    
   101   51  118 1    
   102   51  119 1    
   103   52   53 2    
   104   52   54 am   BACKBONE|DICT|INTERRES
   105   54   55 1    
   106   54  120 1    
   107   55   56 1    
   108   55   57 1    
   109   55  121 1    
   110   56  122 1    
   111   56  123 1    
   112   56  124 1    
   113   57   58 2    
   114   57   59 am   BACKBONE|DICT|INTERRES
   115   59   60 1    
   116   59  125 1    
   117   60   61 1    
   118   60   62 1    
   119   60  126 1    
   120   61  127 1    
   121   61  128 1    
   122   61  129 1    
   123   62   63 2    
   124   62   64 am   BACKBONE|DICT|INTERRES
   125   64   65 1    
   126   64  130 1    
   127   65   66 1    
   128   65   69 1    
   129   65  131 1    
   130   66   67 am   BACKBONE|DICT|INTERRES
   131   66   68 2    
   132   67  132 1    
   133   67  133 1    
   134   69   70 1    
   135   69  134 1    
   136   69  135 1    
   137   70   71 1    
   138   71  136 1    
   139   71  137 1    
@<TRIPOS>SUBSTRUCTURE
     1 UNK         1 GROUP             0       ****    0 ROOT    
