@<TRIPOS>MOLECULE
3R136
137   139    1
SMALL
USER_CHARGES


@<TRIPOS>ATOM
      1 CA         30.7766   24.6367    5.8932 C.3       0 UNK        -0.1979 
      2 C          29.4730   24.1621    5.2713 C.2       0 UNK         0.4864 
      3 O          28.6100   23.6395    5.9787 O.2       0 UNK        -0.5359 
      4 N          29.3299   24.3348    3.9510 N.am      1 UNK        -0.4318 
      5 CA         28.1169   24.0056    3.1916 C.3       1 UNK         0.0824 
      6 C6         28.4099   23.9005    1.6718 C.3       12 UNK        -0.0944 
      7 S7         29.4016   22.4100    1.3137 S.3       12 UNK        -0.2672 
      8 C8         30.2298   22.8418   -0.2576 C.3       12 UNK         0.0333 
      9 C9         31.3338   23.8995   -0.1724 C.ar      12 UNK        -0.0807 
     10 C10        31.9333   24.2662    1.0381 C.ar      12 UNK        -0.0894 
     11 C11        32.9510   25.2204    1.0700 C.ar      12 UNK        -0.0804 
     12 C12        33.3879   25.8024   -0.1226 C.ar      12 UNK        -0.0824 
     13 C13        32.8090   25.4536   -1.3460 C.ar      12 UNK        -0.0762 
     14 C14        31.7870   24.4921   -1.3572 C.ar      12 UNK        -0.0782 
     15 C15        33.3546   26.1067   -2.6207 C.3       12 UNK         0.0230 
     16 S16        32.2452   26.0234   -4.0698 S.3       12 UNK        -0.2608 
     17 C17        32.0000   27.7827   -4.5208 C.3       12 UNK        -0.0989 
     18 CA         30.8280   28.5031   -3.7924 C.3       5 UNK         0.0716 
     19 N          29.7144   27.5909   -3.4938 N.am      5 UNK        -0.4135 
     20 C          28.5358   27.8936   -2.9328 C.2       4 UNK         0.5031 
     21 O          28.1784   29.0419   -2.6553 O.2       4 UNK        -0.5229 
     22 CA         27.6069   26.7098   -2.6082 C.3       4 UNK         0.0329 
     23 CB         28.3903   25.4637   -2.1282 C.3       4 UNK        -0.2001 
     24 N          26.6427   27.1533   -1.6008 N.am      4 UNK        -0.4303 
     25 C          25.6064   26.4578   -1.1229 C.2       3 UNK         0.5044 
     26 O          25.3051   25.3185   -1.4858 O.2       3 UNK        -0.5152 
     27 CA         24.7608   27.1314   -0.0391 C.3       3 UNK         0.0319 
     28 CB         23.3307   27.4133   -0.5388 C.3       3 UNK        -0.2001 
     29 N          24.7439   26.2309    1.1090 N.am      3 UNK        -0.4354 
     30 C          24.4079   26.5543    2.3627 C.2       2 UNK         0.4964 
     31 O          24.0142   27.6693    2.7055 O.2       2 UNK        -0.5047 
     32 CA         24.5450   25.4432    3.4180 C.3       2 UNK         0.0288 
     33 CB         23.2916   24.5524    3.4326 C.3       2 UNK        -0.2113 
     34 N          25.7365   24.6106    3.2170 N.am      2 UNK        -0.4145 
     35 C          26.9859   25.0135    3.4905 C.2       1 UNK         0.5006 
     36 O          27.2532   26.1209    3.9643 O.2       1 UNK        -0.5103 
     37 C          31.3202   29.3085   -2.5687 C.2       5 UNK         0.5055 
     38 O          31.7028   30.4696   -2.7230 O.2       5 UNK        -0.5220 
     39 N          31.2551   28.7026   -1.3815 N.am      6 UNK        -0.4450 
     40 CA         31.2811   29.3630   -0.0835 C.3       6 UNK         0.0367 
     41 CB         32.6999   29.3461    0.5094 C.3       6 UNK        -0.1929 
     42 C          30.2816   28.5988    0.7910 C.2       6 UNK         0.5070 
     43 O          29.9249   27.4647    0.4579 O.2       6 UNK        -0.5237 
     44 N          29.8224   29.2271    1.8742 N.am      7 UNK        -0.4739 
     45 CA         28.8339   28.6470    2.7732 C.3       7 UNK         0.0276 
     46 CB         27.4220   28.9952    2.2738 C.3       7 UNK        -0.1927 
     47 C          29.0510   29.1543    4.1972 C.2       7 UNK         0.5013 
     48 O          29.5111   30.2856    4.3789 O.2       7 UNK        -0.5193 
     49 N          28.6759   28.3129    5.1696 N.am      8 UNK        -0.4253 
     50 CA         28.7094   28.5501    6.6158 C.3       8 UNK         0.0242 
     51 CB         27.4883   29.4051    7.0242 C.3       8 UNK        -0.2000 
     52 C          30.0645   29.1153    7.0902 C.2       8 UNK         0.4948 
     53 O          31.0844   28.4413    6.9392 O.2       8 UNK        -0.5275 
     54 N          30.0586   30.3441    7.6243 N.am      9 UNK        -0.4246 
     55 CA         31.2329   31.0587    8.1274 C.3       9 UNK         0.0261 
     56 CB         30.7746   32.3390    8.8444 C.3       9 UNK        -0.1959 
     57 C          32.2882   31.3934    7.0578 C.2       9 UNK         0.5033 
     58 O          33.4587   31.5396    7.4143 O.2       9 UNK        -0.5390 
     59 N          31.8941   31.4884    5.7768 N.am      10 UNK        -0.4215 
     60 CA         32.8132   31.7697    4.6655 C.3       10 UNK         0.0240 
     61 CB         32.0217   32.1573    3.4066 C.3       10 UNK        -0.1982 
     62 C          33.7851   30.6123    4.3704 C.2       10 UNK         0.4970 
     63 O          34.8285   30.8515    3.7618 O.2       10 UNK        -0.4916 
     64 N          33.4487   29.3985    4.8257 N.am      11 UNK        -0.4279 
     65 CA         34.3444   28.2346    4.8316 C.3       11 UNK         0.1003 
     66 C          35.4142   28.2682    5.9644 C.2       11 UNK         0.5709 
     67 N          35.3858   29.2124    6.8998 N.am      11 UNK        -0.7358 
     68 O          36.3046   27.4218    5.9869 O.2       11 UNK        -0.4999 
     69 C69        33.5451   26.9073    4.8526 C.3       12 UNK        -0.0954 
     70 S70        32.5120   26.6963    3.3654 S.3       12 UNK        -0.2268 
     71 C71        33.5894   25.5982    2.3958 C.3       12 UNK         0.0203 
     72 H72        30.7193   25.7017    6.1180 H         1 UNK         0.0888 
     73 H73        30.9775   24.1020    6.8210 H         1 UNK         0.0888 
     74 H74        31.6175   24.4670    5.2215 H         1 UNK         0.0888 
     75 H75        30.0598   24.7967    3.4284 H         1 UNK         0.3017 
     76 H76        27.7632   23.0322    3.5397 H         1 UNK         0.0873 
     77 H77        27.4893   23.8253    1.0900 H         1 UNK         0.0745 
     78 H78        28.9275   24.7929    1.3123 H         1 UNK         0.0745 
     79 H79        30.6709   21.9303   -0.6628 H         1 UNK         0.0705 
     80 H80        29.4683   23.1529   -0.9719 H         1 UNK         0.0705 
     81 H81        31.6220   23.8106    1.9663 H         1 UNK         0.1334 
     82 H82        34.1906   26.5266   -0.1000 H         1 UNK         0.1417 
     83 H83        31.3437   24.1825   -2.2924 H         1 UNK         0.1562 
     84 H84        34.2928   25.6159   -2.8825 H         1 UNK         0.0748 
     85 H85        33.6041   27.1486   -2.4153 H         1 UNK         0.0748 
     86 H86        31.7894   27.7901   -5.5915 H         1 UNK         0.0940 
     87 H87        32.9425   28.3267   -4.4250 H         1 UNK         0.0940 
     88 H88        30.4254   29.2471   -4.4832 H         1 UNK         0.0703 
     89 H89        29.9168   26.6192   -3.6808 H         1 UNK         0.3081 
     90 H90        27.0591   26.4612   -3.5189 H         1 UNK         0.0719 
     91 H91        29.0623   25.0863   -2.8987 H         1 UNK         0.0809 
     92 H92        27.7294   24.6349   -1.8795 H         1 UNK         0.0809 
     93 H93        28.9867   25.6831   -1.2423 H         1 UNK         0.0809 
     94 H94        26.8029   28.1043   -1.2897 H         1 UNK         0.2990 
     95 H95        25.2248   28.0750    0.2523 H         1 UNK         0.0690 
     96 H96        22.7367   27.9272    0.2169 H         1 UNK         0.0788 
     97 H97        22.8089   26.4932   -0.8053 H         1 UNK         0.0788 
     98 H98        23.3463   28.0495   -1.4246 H         1 UNK         0.0788 
     99 H99        25.0507   25.2887    0.9071 H         1 UNK         0.2993 
    100 H100       24.6269   25.9277    4.3940 H         1 UNK         0.0949 
    101 H101       23.3409   23.8121    4.2315 H         1 UNK         0.0767 
    102 H102       22.3929   25.1480    3.6002 H         1 UNK         0.0767 
    103 H103       23.1589   24.0211    2.4892 H         1 UNK         0.0767 
    104 H104       25.5871   23.6808    2.8517 H         1 UNK         0.3013 
    105 H105       30.8883   27.7583   -1.3271 H         1 UNK         0.3121 
    106 H106       30.9357   30.3940   -0.1880 H         1 UNK         0.0774 
    107 H107       32.7505   29.9472    1.4167 H         1 UNK         0.0815 
    108 H108       33.0114   28.3400    0.7807 H         1 UNK         0.0815 
    109 H109       33.4312   29.7510   -0.1899 H         1 UNK         0.0815 
    110 H110       30.1677   30.1389    2.1410 H         1 UNK         0.2987 
    111 H111       28.9617   27.5627    2.7840 H         1 UNK         0.0949 
    112 H112       27.2723   30.0732    2.2056 H         1 UNK         0.0806 
    113 H113       27.2433   28.5656    1.2896 H         1 UNK         0.0806 
    114 H114       26.6588   28.6010    2.9453 H         1 UNK         0.0806 
    115 H115       28.2681   27.4263    4.8782 H         1 UNK         0.3010 
    116 H116       28.6064   27.5737    7.0916 H         1 UNK         0.0829 
    117 H117       26.5588   28.9110    6.7405 H         1 UNK         0.0813 
    118 H118       27.4478   29.5540    8.1042 H         1 UNK         0.0813 
    119 H119       27.4926   30.3854    6.5457 H         1 UNK         0.0813 
    120 H120       29.1756   30.8307    7.6795 H         1 UNK         0.3038 
    121 H121       31.7173   30.4120    8.8622 H         1 UNK         0.0769 
    122 H122       30.2564   33.0184    8.1663 H         1 UNK         0.0811 
    123 H123       31.6264   32.8803    9.2592 H         1 UNK         0.0811 
    124 H124       30.1038   32.1128    9.6734 H         1 UNK         0.0811 
    125 H125       30.9292   31.2846    5.5322 H         1 UNK         0.3204 
    126 H126       33.4205   32.6313    4.9516 H         1 UNK         0.0748 
    127 H127       31.3310   32.9769    3.6053 H         1 UNK         0.0771 
    128 H128       32.6934   32.4843    2.6117 H         1 UNK         0.0771 
    129 H129       31.4476   31.3190    3.0179 H         1 UNK         0.0771 
    130 H130       32.5777   29.2823    5.3269 H         1 UNK         0.2980 
    131 H131       34.9135   28.2507    3.9001 H         1 UNK         0.0545 
    132 H132       34.6735   29.9325    6.9061 H         1 UNK         0.3459 
    133 H133       36.0956   29.2099    7.6147 H         1 UNK         0.3459 
    134 H134       34.2133   26.0486    4.9392 H         1 UNK         0.0616 
    135 H135       32.8989   26.8698    5.7301 H         1 UNK         0.0616 
    136 H136       33.7957   24.6928    2.9686 H         1 UNK         0.0634 
    137 H137       34.5497   26.0904    2.2340 H         1 UNK         0.0634 
@<TRIPOS>BOND
     1    1    2 1    
     2    1   72 1    
     3    1   73 1    
     4    1   74 1    
     5    2    3 2    
     6    2    4 am   BACKBONE|DICT|INTERRES
     7    4    5 1    
     8    4   75 1    
     9    5    6 1    
    10    5   35 1    
    11    5   76 1    
    12    6    7 1    
    13    6   77 1    
    14    6   78 1    
    15    7    8 1    
    16    8    9 1    
    17    8   79 1    
    18    8   80 1    
    19    9   10 ar   
    20    9   14 ar   
    21   10   11 ar   
    22   10   81 1    
    23   11   12 ar   
    24   11   71 1    
    25   12   13 ar   
    26   12   82 1    
    27   13   14 ar   
    28   13   15 1    
    29   14   83 1    
    30   15   16 1    
    31   15   84 1    
    32   15   85 1    
    33   16   17 1    
    34   17   18 1    
    35   17   86 1    
    36   17   87 1    
    37   18   19 1    
    38   18   37 1    
    39   18   88 1    
    40   19   20 am   BACKBONE|DICT|INTERRES
    41   19   89 1    
    42   20   21 2    
    43   20   22 1    
    44   22   23 1    
    45   22   24 1    
    46   22   90 1    
    47   23   91 1    
    48   23   92 1    
    49   23   93 1    
    50   24   25 am   BACKBONE|DICT|INTERRES
    51   24   94 1    
    52   25   26 2    
    53   25   27 1    
    54   27   28 1    
    55   27   29 1    
    56   27   95 1    
    57   28   96 1    
    58   28   97 1    
    59   28   98 1    
    60   29   30 am   BACKBONE|DICT|INTERRES
    61   29   99 1    
    62   30   31 2    
    63   30   32 1    
    64   32   33 1    
    65   32   34 1    
    66   32  100 1    
    67   33  101 1    
    68   33  102 1    
    69   33  103 1    
    70   34   35 am   BACKBONE|DICT|INTERRES
    71   34  104 1    
    72   35   36 2    
    73   37   38 2    
    74   37   39 am   BACKBONE|DICT|INTERRES
    75   39   40 1    
    76   39  105 1    
    77   40   41 1    
    78   40   42 1    
    79   40  106 1    
    80   41  107 1    
    81   41  108 1    
    82   41  109 1    
    83   42   43 2    
    84   42   44 am   BACKBONE|DICT|INTERRES
    85   44   45 1    
    86   44  110 1    
    87   45   46 1    
    88   45   47 1    
    89   45  111 1    
    90   46  112 1    
    91   46  113 1    
    92   46  114 1    
    93   47   48 2    
    94   47   49 am   BACKBONE|DICT|INTERRES
    95   49   50 1    
    96   49  115 1    
    97   50   51 1    
    98   50   52 1    
    99   50  116 1    
   100   51  117 1    
   101   51  118 1    
   102   51  119 1    
   103   52   53 2    
   104   52   54 am   BACKBONE|DICT|INTERRES
   105   54   55 1    
   106   54  120 1    
   107   55   56 1    
   108   55   57 1    
   109   55  121 1    
   110   56  122 1    
   111   56  123 1    
   112   56  124 1    
   113   57   58 2    
   114   57   59 am   BACKBONE|DICT|INTERRES
   115   59   60 1    
   116   59  125 1    
   117   60   61 1    
   118   60   62 1    
   119   60  126 1    
   120   61  127 1    
   121   61  128 1    
   122   61  129 1    
   123   62   63 2    
   124   62   64 am   BACKBONE|DICT|INTERRES
   125   64   65 1    
   126   64  130 1    
   127   65   66 1    
   128   65   69 1    
   129   65  131 1    
   130   66   67 am   BACKBONE|DICT|INTERRES
   131   66   68 2    
   132   67  132 1    
   133   67  133 1    
   134   69   70 1    
   135   69  134 1    
   136   69  135 1    
   137   70   71 1    
   138   71  136 1    
   139   71  137 1    
@<TRIPOS>SUBSTRUCTURE
     1 UNK         1 GROUP             0       ****    0 ROOT    
