@<TRIPOS>MOLECULE
3R136
137   139    1
SMALL
USER_CHARGES


@<TRIPOS>ATOM
      1 CA         30.3633   27.0563    3.7222 C.3       0 UNK        -0.1979 
      2 C          29.0347   26.3277    3.6082 C.2       0 UNK         0.4864 
      3 O          28.0402   26.7742    4.1817 O.2       0 UNK        -0.5359 
      4 N          29.0120   25.1998    2.8849 N.am      1 UNK        -0.4318 
      5 CA         27.8173   24.3759    2.6742 C.3       1 UNK         0.0824 
      6 C6         28.1419   22.9932    2.0567 C.3       12 UNK        -0.0944 
      7 S7         29.2126   21.9789    3.1319 S.3       12 UNK        -0.2672 
      8 C8         30.7040   21.7613    2.1074 C.3       12 UNK         0.0333 
      9 C9         31.4900   23.0567    1.9727 C.ar      12 UNK        -0.0807 
     10 C10        32.3056   23.4932    3.0212 C.ar      12 UNK        -0.0894 
     11 C11        33.0099   24.6959    2.9167 C.ar      12 UNK        -0.0804 
     12 C12        32.9009   25.4583    1.7500 C.ar      12 UNK        -0.0824 
     13 C13        32.0864   25.0329    0.6973 C.ar      12 UNK        -0.0762 
     14 C14        31.3932   23.8246    0.8085 C.ar      12 UNK        -0.0782 
     15 C15        31.9287   25.8989   -0.5412 C.3       12 UNK         0.0230 
     16 S16        30.8411   27.3095   -0.1795 S.3       12 UNK        -0.2608 
     17 C17        30.4765   27.9537   -1.8516 C.3       12 UNK        -0.0989 
     18 CA         28.9858   27.8026   -2.2541 C.3       5 UNK         0.0716 
     19 N          28.5563   26.4049   -2.1985 N.am      5 UNK        -0.4135 
     20 C          27.4546   25.8997   -2.7650 C.2       4 UNK         0.5031 
     21 O          26.6255   26.5756   -3.3758 O.2       4 UNK        -0.5229 
     22 CA         27.2534   24.3796   -2.6618 C.3       4 UNK         0.0329 
     23 CB         28.4801   23.6140   -2.1226 C.3       4 UNK        -0.2001 
     24 N          26.1165   24.1183   -1.7873 N.am      4 UNK        -0.4303 
     25 C          24.9740   23.5211   -2.1517 C.2       3 UNK         0.5044 
     26 O          24.7474   23.1131   -3.2920 O.2       3 UNK        -0.5152 
     27 CA         23.9019   23.3081   -1.0636 C.3       3 UNK         0.0319 
     28 CB         23.7693   21.8132   -0.7261 C.3       3 UNK        -0.2001 
     29 N          24.1675   24.0452    0.1739 N.am      3 UNK        -0.4354 
     30 C          23.9877   25.3631    0.3344 C.2       2 UNK         0.4964 
     31 O          23.5079   26.1002   -0.5262 O.2       2 UNK        -0.5047 
     32 CA         24.4401   25.9635    1.6761 C.3       2 UNK         0.0288 
     33 CB         23.2592   26.0377    2.6571 C.3       2 UNK        -0.2113 
     34 N          25.5545   25.2502    2.3123 N.am      2 UNK        -0.4145 
     35 C          26.7908   25.1281    1.8060 C.2       1 UNK         0.5006 
     36 O          27.1302   25.5578    0.6989 O.2       1 UNK        -0.5103 
     37 C          28.0914   28.7577   -1.4367 C.2       5 UNK         0.5055 
     38 O          27.9371   29.9125   -1.8381 O.2       5 UNK        -0.5220 
     39 N          27.5629   28.2782   -0.2974 N.am      6 UNK        -0.4450 
     40 CA         26.8381   29.0423    0.7274 C.3       6 UNK         0.0367 
     41 CB         25.4552   29.4791    0.1974 C.3       6 UNK        -0.1929 
     42 C          27.6570   30.2209    1.3009 C.2       6 UNK         0.5070 
     43 O          27.0942   31.2823    1.5766 O.2       6 UNK        -0.5237 
     44 N          28.9772   30.0261    1.4394 N.am      7 UNK        -0.4739 
     45 CA         29.9331   31.0394    1.8928 C.3       7 UNK         0.0276 
     46 CB         31.3629   30.4993    1.7216 C.3       7 UNK        -0.1927 
     47 C          29.6976   31.4721    3.3497 C.2       7 UNK         0.5013 
     48 O          29.4719   30.6224    4.2130 O.2       7 UNK        -0.5193 
     49 N          29.8102   32.7805    3.6048 N.am      8 UNK        -0.4253 
     50 CA         29.7009   33.3895    4.9321 C.3       8 UNK         0.0242 
     51 CB         28.9247   34.7152    4.8102 C.3       8 UNK        -0.2000 
     52 C          31.0986   33.5728    5.5510 C.2       8 UNK         0.4948 
     53 O          31.4668   34.6871    5.9286 O.2       8 UNK        -0.5275 
     54 N          31.8665   32.4806    5.6197 N.am      9 UNK        -0.4246 
     55 CA         33.2242   32.4268    6.1529 C.3       9 UNK         0.0261 
     56 CB         34.2289   32.8868    5.0794 C.3       9 UNK        -0.1959 
     57 C          33.5180   30.9898    6.5903 C.2       9 UNK         0.5033 
     58 O          32.9030   30.0551    6.0682 O.2       9 UNK        -0.5390 
     59 N          34.4834   30.8272    7.5036 N.am      10 UNK        -0.4215 
     60 CA         34.9345   29.5416    8.0507 C.3       10 UNK         0.0240 
     61 CB         35.6097   29.7900    9.4133 C.3       10 UNK        -0.1982 
     62 C          35.8387   28.7607    7.0725 C.2       10 UNK         0.4970 
     63 O          36.9513   28.3731    7.4330 O.2       10 UNK        -0.4916 
     64 N          35.3410   28.5557    5.8477 N.am      11 UNK        -0.4279 
     65 CA         35.9909   27.8397    4.7383 C.3       11 UNK         0.1003 
     66 C          37.2592   28.5285    4.1455 C.2       11 UNK         0.5709 
     67 N          37.5158   29.7989    4.4346 N.am      11 UNK        -0.7358 
     68 O          38.0068   27.9180    3.3850 O.2       11 UNK        -0.4999 
     69 C69        36.1858   26.3229    5.0523 C.3       12 UNK        -0.0954 
     70 S70        35.6153   25.2624    3.6857 S.3       12 UNK        -0.2268 
     71 C71        33.8411   25.2067    4.0822 C.3       12 UNK         0.0203 
     72 H72        30.2114   28.0826    4.0538 H         1 UNK         0.0888 
     73 H73        31.0050   26.5579    4.4475 H         1 UNK         0.0888 
     74 H74        30.8769   27.0884    2.7639 H         1 UNK         0.0888 
     75 H75        29.8584   24.8705    2.4403 H         1 UNK         0.3017 
     76 H76        27.3717   24.2017    3.6562 H         1 UNK         0.0873 
     77 H77        28.5997   23.1036    1.0743 H         1 UNK         0.0745 
     78 H78        27.2235   22.4256    1.8942 H         1 UNK         0.0745 
     79 H79        30.4219   21.3706    1.1283 H         1 UNK         0.0705 
     80 H80        31.3373   21.0006    2.5663 H         1 UNK         0.0705 
     81 H81        32.3730   22.9042    3.9260 H         1 UNK         0.1334 
     82 H82        33.4298   26.3987    1.6721 H         1 UNK         0.1417 
     83 H83        30.7678   23.4870   -0.0055 H         1 UNK         0.1562 
     84 H84        31.5188   25.3151   -1.3667 H         1 UNK         0.0748 
     85 H85        32.9031   26.2640   -0.8694 H         1 UNK         0.0748 
     86 H86        31.1064   27.4456   -2.5835 H         1 UNK         0.0940 
     87 H87        30.7807   29.0018   -1.8919 H         1 UNK         0.0940 
     88 H88        28.8987   28.1187   -3.2961 H         1 UNK         0.0703 
     89 H89        29.1576   25.7822   -1.6815 H         1 UNK         0.3081 
     90 H90        27.0549   24.0226   -3.6744 H         1 UNK         0.0719 
     91 H91        28.2932   22.5399   -2.1118 H         1 UNK         0.0809 
     92 H92        29.3581   23.7765   -2.7495 H         1 UNK         0.0809 
     93 H93        28.7288   23.9118   -1.1050 H         1 UNK         0.0809 
     94 H94        26.1955   24.4905   -0.8481 H         1 UNK         0.2990 
     95 H95        22.9498   23.6513   -1.4741 H         1 UNK         0.0690 
     96 H96        23.5282   21.2308   -1.6166 H         1 UNK         0.0788 
     97 H97        22.9723   21.6381   -0.0031 H         1 UNK         0.0788 
     98 H98        24.6943   21.4084   -0.3134 H         1 UNK         0.0788 
     99 H99        24.5486   23.5163    0.9446 H         1 UNK         0.2993 
    100 H100       24.7738   26.9809    1.4751 H         1 UNK         0.0949 
    101 H101       22.8929   25.0459    2.9256 H         1 UNK         0.0767 
    102 H102       23.5382   26.5542    3.5759 H         1 UNK         0.0767 
    103 H103       22.4233   26.5871    2.2211 H         1 UNK         0.0767 
    104 H104       25.3720   24.8734    3.2317 H         1 UNK         0.3013 
    105 H105       27.7136   27.2978   -0.0751 H         1 UNK         0.3121 
    106 H106       26.6806   28.3582    1.5619 H         1 UNK         0.0774 
    107 H107       25.5428   30.2569   -0.5618 H         1 UNK         0.0815 
    108 H108       24.8371   29.8788    1.0020 H         1 UNK         0.0815 
    109 H109       24.9137   28.6443   -0.2470 H         1 UNK         0.0815 
    110 H110       29.3577   29.1245    1.1892 H         1 UNK         0.2987 
    111 H111       29.8143   31.9108    1.2450 H         1 UNK         0.0949 
    112 H112       32.1016   31.2375    2.0372 H         1 UNK         0.0806 
    113 H113       31.5294   29.5999    2.3157 H         1 UNK         0.0806 
    114 H114       31.5745   30.2572    0.6799 H         1 UNK         0.0806 
    115 H115       30.0426   33.4070    2.8469 H         1 UNK         0.3010 
    116 H116       29.1354   32.7362    5.6005 H         1 UNK         0.0829 
    117 H117       27.9306   34.5543    4.3927 H         1 UNK         0.0813 
    118 H118       28.7918   35.1818    5.7873 H         1 UNK         0.0813 
    119 H119       29.4439   35.4325    4.1733 H         1 UNK         0.0813 
    120 H120       31.4906   31.5811    5.3379 H         1 UNK         0.3038 
    121 H121       33.2934   33.0766    7.0281 H         1 UNK         0.0769 
    122 H122       34.1812   32.2582    4.1891 H         1 UNK         0.0811 
    123 H123       35.2526   32.8483    5.4534 H         1 UNK         0.0811 
    124 H124       34.0388   33.9151    4.7716 H         1 UNK         0.0811 
    125 H125       34.9624   31.6479    7.8474 H         1 UNK         0.3204 
    126 H126       34.0560   28.9177    8.2299 H         1 UNK         0.0748 
    127 H127       35.9091   28.8503    9.8797 H         1 UNK         0.0771 
    128 H128       36.5049   30.4056    9.3151 H         1 UNK         0.0771 
    129 H129       34.9327   30.2894   10.1068 H         1 UNK         0.0771 
    130 H130       34.4193   28.9388    5.6558 H         1 UNK         0.2980 
    131 H131       35.2604   27.9292    3.9337 H         1 UNK         0.0545 
    132 H132       36.9136   30.3140    5.0548 H         1 UNK         0.3459 
    133 H133       38.3314   30.2388    4.0384 H         1 UNK         0.3459 
    134 H134       37.2285   26.0886    5.2740 H         1 UNK         0.0616 
    135 H135       35.6332   26.0300    5.9466 H         1 UNK         0.0616 
    136 H136       33.6949   24.5876    4.9687 H         1 UNK         0.0634 
    137 H137       33.4947   26.2074    4.3442 H         1 UNK         0.0634 
@<TRIPOS>BOND
     1    1    2 1    
     2    1   72 1    
     3    1   73 1    
     4    1   74 1    
     5    2    3 2    
     6    2    4 am   BACKBONE|DICT|INTERRES
     7    4    5 1    
     8    4   75 1    
     9    5    6 1    
    10    5   35 1    
    11    5   76 1    
    12    6    7 1    
    13    6   77 1    
    14    6   78 1    
    15    7    8 1    
    16    8    9 1    
    17    8   79 1    
    18    8   80 1    
    19    9   10 ar   
    20    9   14 ar   
    21   10   11 ar   
    22   10   81 1    
    23   11   12 ar   
    24   11   71 1    
    25   12   13 ar   
    26   12   82 1    
    27   13   14 ar   
    28   13   15 1    
    29   14   83 1    
    30   15   16 1    
    31   15   84 1    
    32   15   85 1    
    33   16   17 1    
    34   17   18 1    
    35   17   86 1    
    36   17   87 1    
    37   18   19 1    
    38   18   37 1    
    39   18   88 1    
    40   19   20 am   BACKBONE|DICT|INTERRES
    41   19   89 1    
    42   20   21 2    
    43   20   22 1    
    44   22   23 1    
    45   22   24 1    
    46   22   90 1    
    47   23   91 1    
    48   23   92 1    
    49   23   93 1    
    50   24   25 am   BACKBONE|DICT|INTERRES
    51   24   94 1    
    52   25   26 2    
    53   25   27 1    
    54   27   28 1    
    55   27   29 1    
    56   27   95 1    
    57   28   96 1    
    58   28   97 1    
    59   28   98 1    
    60   29   30 am   BACKBONE|DICT|INTERRES
    61   29   99 1    
    62   30   31 2    
    63   30   32 1    
    64   32   33 1    
    65   32   34 1    
    66   32  100 1    
    67   33  101 1    
    68   33  102 1    
    69   33  103 1    
    70   34   35 am   BACKBONE|DICT|INTERRES
    71   34  104 1    
    72   35   36 2    
    73   37   38 2    
    74   37   39 am   BACKBONE|DICT|INTERRES
    75   39   40 1    
    76   39  105 1    
    77   40   41 1    
    78   40   42 1    
    79   40  106 1    
    80   41  107 1    
    81   41  108 1    
    82   41  109 1    
    83   42   43 2    
    84   42   44 am   BACKBONE|DICT|INTERRES
    85   44   45 1    
    86   44  110 1    
    87   45   46 1    
    88   45   47 1    
    89   45  111 1    
    90   46  112 1    
    91   46  113 1    
    92   46  114 1    
    93   47   48 2    
    94   47   49 am   BACKBONE|DICT|INTERRES
    95   49   50 1    
    96   49  115 1    
    97   50   51 1    
    98   50   52 1    
    99   50  116 1    
   100   51  117 1    
   101   51  118 1    
   102   51  119 1    
   103   52   53 2    
   104   52   54 am   BACKBONE|DICT|INTERRES
   105   54   55 1    
   106   54  120 1    
   107   55   56 1    
   108   55   57 1    
   109   55  121 1    
   110   56  122 1    
   111   56  123 1    
   112   56  124 1    
   113   57   58 2    
   114   57   59 am   BACKBONE|DICT|INTERRES
   115   59   60 1    
   116   59  125 1    
   117   60   61 1    
   118   60   62 1    
   119   60  126 1    
   120   61  127 1    
   121   61  128 1    
   122   61  129 1    
   123   62   63 2    
   124   62   64 am   BACKBONE|DICT|INTERRES
   125   64   65 1    
   126   64  130 1    
   127   65   66 1    
   128   65   69 1    
   129   65  131 1    
   130   66   67 am   BACKBONE|DICT|INTERRES
   131   66   68 2    
   132   67  132 1    
   133   67  133 1    
   134   69   70 1    
   135   69  134 1    
   136   69  135 1    
   137   70   71 1    
   138   71  136 1    
   139   71  137 1    
@<TRIPOS>SUBSTRUCTURE
     1 UNK         1 GROUP             0       ****    0 ROOT    
