@<TRIPOS>MOLECULE
3R136
137   139    1
SMALL
USER_CHARGES


@<TRIPOS>ATOM
      1 CA         28.5871   22.0139   -1.2219 C.3       0 UNK        -0.1979 
      2 C          27.9707   23.2046   -0.5059 C.2       0 UNK         0.4864 
      3 O          27.3303   24.0409   -1.1464 O.2       0 UNK        -0.5359 
      4 N          28.1689   23.3061    0.8130 N.am      1 UNK        -0.4318 
      5 CA         27.5667   24.3430    1.6506 C.3       1 UNK         0.0824 
      6 C6         28.4880   24.7527    2.8277 C.3       12 UNK        -0.0944 
      7 S7         28.9350   23.4379    4.0228 S.3       12 UNK        -0.2672 
      8 C8         30.4802   22.7223    3.3647 C.3       12 UNK         0.0333 
      9 C9         31.5312   23.7721    3.0366 C.ar      12 UNK        -0.0807 
     10 C10        32.2075   24.4470    4.0588 C.ar      12 UNK        -0.0894 
     11 C11        33.1529   25.4312    3.7513 C.ar      12 UNK        -0.0804 
     12 C12        33.4149   25.7357    2.4124 C.ar      12 UNK        -0.0824 
     13 C13        32.7532   25.0606    1.3851 C.ar      12 UNK        -0.0762 
     14 C14        31.8187   24.0729    1.7018 C.ar      12 UNK        -0.0782 
     15 C15        33.0444   25.4109   -0.0643 C.3       12 UNK         0.0230 
     16 S16        32.0953   26.8700   -0.5871 S.3       12 UNK        -0.2608 
     17 C17        30.4160   26.1712   -0.7290 C.3       12 UNK        -0.0989 
     18 CA         29.4243   27.1985   -1.3245 C.3       5 UNK         0.0716 
     19 N          28.3402   26.5402   -2.0553 N.am      5 UNK        -0.4135 
     20 C          27.6969   27.0812   -3.0980 C.2       4 UNK         0.5031 
     21 O          27.9591   28.1891   -3.5692 O.2       4 UNK        -0.5229 
     22 CA         26.5793   26.2464   -3.7332 C.3       4 UNK         0.0329 
     23 CB         27.1649   25.0805   -4.5489 C.3       4 UNK        -0.2001 
     24 N          25.6723   25.7208   -2.7129 N.am      4 UNK        -0.4303 
     25 C          24.3737   26.0299   -2.6172 C.2       3 UNK         0.5044 
     26 O          23.7866   26.7989   -3.3802 O.2       3 UNK        -0.5152 
     27 CA         23.5813   25.3525   -1.4877 C.3       3 UNK         0.0319 
     28 CB         23.2155   23.9105   -1.8767 C.3       3 UNK        -0.2001 
     29 N          24.2710   25.3437   -0.1962 N.am      3 UNK        -0.4354 
     30 C          24.5533   26.4287    0.5424 C.2       2 UNK         0.4964 
     31 O          24.3091   27.5786    0.1766 O.2       2 UNK        -0.5047 
     32 CA         25.1499   26.1966    1.9490 C.3       2 UNK         0.0288 
     33 CB         24.3280   26.9390    3.0179 C.3       2 UNK        -0.2113 
     34 N          25.1835   24.7722    2.3091 N.am      2 UNK        -0.4145 
     35 C          26.1705   23.8814    2.1308 C.2       1 UNK         0.5006 
     36 O          25.9852   22.6850    2.3595 O.2       1 UNK        -0.5103 
     37 C          28.8567   28.1483   -0.2511 C.2       5 UNK         0.5055 
     38 O          27.7432   27.9396    0.2340 O.2       5 UNK        -0.5220 
     39 N          29.6511   29.1631    0.1130 N.am      6 UNK        -0.4450 
     40 CA         29.2700   30.2816    0.9833 C.3       6 UNK         0.0367 
     41 CB         30.2348   31.4519    0.7264 C.3       6 UNK        -0.1929 
     42 C          29.1802   29.9543    2.4891 C.2       6 UNK         0.5070 
     43 O          28.8972   30.8605    3.2752 O.2       6 UNK        -0.5237 
     44 N          29.4142   28.6911    2.8750 N.am      7 UNK        -0.4739 
     45 CA         29.2952   28.1506    4.2352 C.3       7 UNK         0.0276 
     46 CB         27.8093   28.1237    4.6696 C.3       7 UNK        -0.1927 
     47 C          30.2221   28.8830    5.2225 C.2       7 UNK         0.5013 
     48 O          31.4336   28.8791    5.0134 O.2       7 UNK        -0.5193 
     49 N          29.6517   29.5194    6.2549 N.am      8 UNK        -0.4253 
     50 CA         30.3623   30.2681    7.2968 C.3       8 UNK         0.0242 
     51 CB         29.3540   30.7055    8.3725 C.3       8 UNK        -0.2000 
     52 C          31.1706   31.4799    6.7920 C.2       8 UNK         0.4948 
     53 O          32.0633   31.9340    7.5088 O.2       8 UNK        -0.5275 
     54 N          30.8616   31.9831    5.5874 N.am      9 UNK        -0.4246 
     55 CA         31.6345   33.0332    4.9190 C.3       9 UNK         0.0261 
     56 CB         30.7121   33.8172    3.9732 C.3       9 UNK        -0.1959 
     57 C          32.8718   32.4915    4.1739 C.2       9 UNK         0.5033 
     58 O          33.7167   33.2944    3.7738 O.2       9 UNK        -0.5390 
     59 N          32.9724   31.1662    4.0021 N.am      10 UNK        -0.4215 
     60 CA         34.1430   30.4675    3.4726 C.3       10 UNK         0.0240 
     61 CB         33.6685   29.4318    2.4351 C.3       10 UNK        -0.1982 
     62 C          34.9164   29.8060    4.6290 C.2       10 UNK         0.4970 
     63 O          34.4981   29.8954    5.7857 O.2       10 UNK        -0.4916 
     64 N          36.0396   29.1557    4.2952 N.am      11 UNK        -0.4279 
     65 CA         36.9389   28.4473    5.2298 C.3       11 UNK         0.1003 
     66 C          37.7014   29.3736    6.2288 C.2       11 UNK         0.5709 
     67 N          37.7835   30.6776    5.9912 N.am      11 UNK        -0.7358 
     68 O          38.2628   28.9041    7.2163 O.2       11 UNK        -0.4999 
     69 C69        36.2664   27.2277    5.9333 C.3       12 UNK        -0.0954 
     70 S70        35.6786   25.9658    4.7555 S.3       12 UNK        -0.2268 
     71 C71        33.8743   26.1905    4.8555 C.3       12 UNK         0.0203 
     72 H72        29.2738   22.3574   -1.9949 H         1 UNK         0.0888 
     73 H73        29.1383   21.3677   -0.5391 H         1 UNK         0.0888 
     74 H74        27.8071   21.4205   -1.6978 H         1 UNK         0.0888 
     75 H75        28.6259   22.5592    1.3145 H         1 UNK         0.3017 
     76 H76        27.4511   25.2261    1.0228 H         1 UNK         0.0873 
     77 H77        27.9935   25.5324    3.4045 H         1 UNK         0.0745 
     78 H78        29.3897   25.2259    2.4435 H         1 UNK         0.0745 
     79 H79        30.2501   22.1184    2.4865 H         1 UNK         0.0705 
     80 H80        30.8855   22.0301    4.1041 H         1 UNK         0.0705 
     81 H81        31.9844   24.2140    5.0911 H         1 UNK         0.1334 
     82 H82        34.1391   26.5004    2.1694 H         1 UNK         0.1417 
     83 H83        31.3012   23.5529    0.9074 H         1 UNK         0.1562 
     84 H84        32.8244   24.5686   -0.7222 H         1 UNK         0.0748 
     85 H85        34.1084   25.6208   -0.1838 H         1 UNK         0.0748 
     86 H86        30.0780   25.7984    0.2383 H         1 UNK         0.0940 
     87 H87        30.4870   25.2981   -1.3803 H         1 UNK         0.0940 
     88 H88        29.9684   27.8110   -2.0477 H         1 UNK         0.0703 
     89 H89        28.0258   25.6408   -1.7002 H         1 UNK         0.3081 
     90 H90        26.0429   26.8989   -4.4253 H         1 UNK         0.0719 
     91 H91        27.8593   25.4442   -5.3076 H         1 UNK         0.0809 
     92 H92        27.7074   24.3733   -3.9202 H         1 UNK         0.0809 
     93 H93        26.3794   24.5298   -5.0664 H         1 UNK         0.0809 
     94 H94        26.0789   25.0778   -2.0366 H         1 UNK         0.2990 
     95 H95        22.6522   25.9122   -1.3592 H         1 UNK         0.0690 
     96 H96        22.5610   23.4526   -1.1348 H         1 UNK         0.0788 
     97 H97        24.1011   23.2814   -1.9782 H         1 UNK         0.0788 
     98 H98        22.6871   23.8858   -2.8309 H         1 UNK         0.0788 
     99 H99        24.5009   24.4365    0.1813 H         1 UNK         0.2993 
    100 H100       26.1474   26.6341    1.9609 H         1 UNK         0.0949 
    101 H101       24.3339   28.0154    2.8399 H         1 UNK         0.0767 
    102 H102       23.2864   26.6151    3.0254 H         1 UNK         0.0767 
    103 H103       24.7361   26.7782    4.0161 H         1 UNK         0.0767 
    104 H104       24.3082   24.4114    2.6615 H         1 UNK         0.3013 
    105 H105       30.5755   29.2105   -0.2934 H         1 UNK         0.3121 
    106 H106       28.2715   30.6028    0.6789 H         1 UNK         0.0774 
    107 H107       29.8452   32.3728    1.1585 H         1 UNK         0.0815 
    108 H108       31.2179   31.2729    1.1623 H         1 UNK         0.0815 
    109 H109       30.3657   31.6398   -0.3394 H         1 UNK         0.0815 
    110 H110       29.6896   28.0349    2.1596 H         1 UNK         0.2987 
    111 H111       29.6575   27.1223    4.1974 H         1 UNK         0.0949 
    112 H112       27.6830   27.5965    5.6163 H         1 UNK         0.0806 
    113 H113       27.1933   27.6097    3.9343 H         1 UNK         0.0806 
    114 H114       27.3904   29.1243    4.7831 H         1 UNK         0.0806 
    115 H115       28.6450   29.4935    6.3267 H         1 UNK         0.3010 
    116 H116       31.0778   29.5827    7.7562 H         1 UNK         0.0829 
    117 H117       28.8470   29.8481    8.8156 H         1 UNK         0.0813 
    118 H118       29.8536   31.2370    9.1839 H         1 UNK         0.0813 
    119 H119       28.5944   31.3739    7.9651 H         1 UNK         0.0813 
    120 H120       30.1125   31.5576    5.0522 H         1 UNK         0.3038 
    121 H121       32.0026   33.7347    5.6709 H         1 UNK         0.0769 
    122 H122       31.2584   34.6044    3.4518 H         1 UNK         0.0811 
    123 H123       29.8994   34.2951    4.5203 H         1 UNK         0.0811 
    124 H124       30.2697   33.1706    3.2189 H         1 UNK         0.0811 
    125 H125       32.2888   30.5591    4.4472 H         1 UNK         0.3204 
    126 H126       34.8173   31.1699    2.9786 H         1 UNK         0.0748 
    127 H127       34.5075   28.8978    1.9889 H         1 UNK         0.0771 
    128 H128       33.0022   28.6898    2.8755 H         1 UNK         0.0771 
    129 H129       33.1314   29.9110    1.6175 H         1 UNK         0.0771 
    130 H130       36.3276   29.1438    3.3279 H         1 UNK         0.2980 
    131 H131       37.7321   28.0438    4.5996 H         1 UNK         0.0545 
    132 H132       38.2891   31.2646    6.6358 H         1 UNK         0.3459 
    133 H133       37.3411   31.0802    5.1812 H         1 UNK         0.3459 
    134 H134       36.9799   26.7249    6.5881 H         1 UNK         0.0616 
    135 H135       35.4473   27.5481    6.5785 H         1 UNK         0.0616 
    136 H136       33.5307   25.8704    5.8402 H         1 UNK         0.0634 
    137 H137       33.6281   27.2478    4.7708 H         1 UNK         0.0634 
@<TRIPOS>BOND
     1    1    2 1    
     2    1   72 1    
     3    1   73 1    
     4    1   74 1    
     5    2    3 2    
     6    2    4 am   BACKBONE|DICT|INTERRES
     7    4    5 1    
     8    4   75 1    
     9    5    6 1    
    10    5   35 1    
    11    5   76 1    
    12    6    7 1    
    13    6   77 1    
    14    6   78 1    
    15    7    8 1    
    16    8    9 1    
    17    8   79 1    
    18    8   80 1    
    19    9   10 ar   
    20    9   14 ar   
    21   10   11 ar   
    22   10   81 1    
    23   11   12 ar   
    24   11   71 1    
    25   12   13 ar   
    26   12   82 1    
    27   13   14 ar   
    28   13   15 1    
    29   14   83 1    
    30   15   16 1    
    31   15   84 1    
    32   15   85 1    
    33   16   17 1    
    34   17   18 1    
    35   17   86 1    
    36   17   87 1    
    37   18   19 1    
    38   18   37 1    
    39   18   88 1    
    40   19   20 am   BACKBONE|DICT|INTERRES
    41   19   89 1    
    42   20   21 2    
    43   20   22 1    
    44   22   23 1    
    45   22   24 1    
    46   22   90 1    
    47   23   91 1    
    48   23   92 1    
    49   23   93 1    
    50   24   25 am   BACKBONE|DICT|INTERRES
    51   24   94 1    
    52   25   26 2    
    53   25   27 1    
    54   27   28 1    
    55   27   29 1    
    56   27   95 1    
    57   28   96 1    
    58   28   97 1    
    59   28   98 1    
    60   29   30 am   BACKBONE|DICT|INTERRES
    61   29   99 1    
    62   30   31 2    
    63   30   32 1    
    64   32   33 1    
    65   32   34 1    
    66   32  100 1    
    67   33  101 1    
    68   33  102 1    
    69   33  103 1    
    70   34   35 am   BACKBONE|DICT|INTERRES
    71   34  104 1    
    72   35   36 2    
    73   37   38 2    
    74   37   39 am   BACKBONE|DICT|INTERRES
    75   39   40 1    
    76   39  105 1    
    77   40   41 1    
    78   40   42 1    
    79   40  106 1    
    80   41  107 1    
    81   41  108 1    
    82   41  109 1    
    83   42   43 2    
    84   42   44 am   BACKBONE|DICT|INTERRES
    85   44   45 1    
    86   44  110 1    
    87   45   46 1    
    88   45   47 1    
    89   45  111 1    
    90   46  112 1    
    91   46  113 1    
    92   46  114 1    
    93   47   48 2    
    94   47   49 am   BACKBONE|DICT|INTERRES
    95   49   50 1    
    96   49  115 1    
    97   50   51 1    
    98   50   52 1    
    99   50  116 1    
   100   51  117 1    
   101   51  118 1    
   102   51  119 1    
   103   52   53 2    
   104   52   54 am   BACKBONE|DICT|INTERRES
   105   54   55 1    
   106   54  120 1    
   107   55   56 1    
   108   55   57 1    
   109   55  121 1    
   110   56  122 1    
   111   56  123 1    
   112   56  124 1    
   113   57   58 2    
   114   57   59 am   BACKBONE|DICT|INTERRES
   115   59   60 1    
   116   59  125 1    
   117   60   61 1    
   118   60   62 1    
   119   60  126 1    
   120   61  127 1    
   121   61  128 1    
   122   61  129 1    
   123   62   63 2    
   124   62   64 am   BACKBONE|DICT|INTERRES
   125   64   65 1    
   126   64  130 1    
   127   65   66 1    
   128   65   69 1    
   129   65  131 1    
   130   66   67 am   BACKBONE|DICT|INTERRES
   131   66   68 2    
   132   67  132 1    
   133   67  133 1    
   134   69   70 1    
   135   69  134 1    
   136   69  135 1    
   137   70   71 1    
   138   71  136 1    
   139   71  137 1    
@<TRIPOS>SUBSTRUCTURE
     1 UNK         1 GROUP             0       ****    0 ROOT    
