@<TRIPOS>MOLECULE
3R136
137   139    1
SMALL
USER_CHARGES


@<TRIPOS>ATOM
      1 CA         32.5360   22.4617   -2.5112 C.3       0 UNK        -0.1979 
      2 C          31.5276   23.1933   -1.6378 C.2       0 UNK         0.4864 
      3 O          30.3309   23.1473   -1.9241 O.2       0 UNK        -0.5359 
      4 N          32.0089   23.8705   -0.5832 N.am      1 UNK        -0.4318 
      5 CA         31.2177   24.6192    0.4088 C.3       1 UNK         0.0824 
      6 C6         30.2731   23.7122    1.2455 C.3       12 UNK        -0.0944 
      7 S7         31.1802   22.4411    2.1884 S.3       12 UNK        -0.2672 
      8 C8         29.9189   21.9250    3.4066 C.3       12 UNK         0.0333 
      9 C9         29.4158   23.0580    4.2993 C.ar      12 UNK        -0.0807 
     10 C10        30.2933   24.0243    4.8039 C.ar      12 UNK        -0.0894 
     11 C11        29.8145   25.0922    5.5653 C.ar      12 UNK        -0.0804 
     12 C12        28.4537   25.1650    5.8715 C.ar      12 UNK        -0.0824 
     13 C13        27.5674   24.1944    5.3955 C.ar      12 UNK        -0.0762 
     14 C14        28.0536   23.1459    4.6072 C.ar      12 UNK        -0.0782 
     15 C15        26.0841   24.2925    5.7229 C.3       12 UNK         0.0230 
     16 S16        25.3098   25.7463    4.9450 S.3       12 UNK        -0.2608 
     17 C17        25.3027   25.2779    3.1803 C.3       12 UNK        -0.0989 
     18 CA         26.5650   25.7204    2.3907 C.3       5 UNK         0.0716 
     19 N          26.5321   25.2636    1.0094 N.am      5 UNK        -0.4135 
     20 C          26.6800   24.0170    0.5578 C.2       4 UNK         0.5031 
     21 O          26.7876   23.0376    1.2969 O.2       4 UNK        -0.5229 
     22 CA         26.7526   23.8041   -0.9707 C.3       4 UNK         0.0329 
     23 CB         25.5362   23.0061   -1.4821 C.3       4 UNK        -0.2001 
     24 N          26.9727   25.0199   -1.7737 N.am      4 UNK        -0.4303 
     25 C          26.1534   26.0646   -1.9685 C.2       3 UNK         0.5044 
     26 O          25.0211   26.1363   -1.4901 O.2       3 UNK        -0.5152 
     27 CA         26.7124   27.2444   -2.7938 C.3       3 UNK         0.0319 
     28 CB         25.8046   28.4877   -2.7368 C.3       3 UNK        -0.2001 
     29 N          28.0573   27.6278   -2.3533 N.am      3 UNK        -0.4354 
     30 C          29.1952   27.0455   -2.7509 C.2       2 UNK         0.4964 
     31 O          29.2336   26.1358   -3.5800 O.2       2 UNK        -0.5047 
     32 CA         30.5092   27.5035   -2.0898 C.3       2 UNK         0.0288 
     33 CB         30.4039   28.8240   -1.2909 C.3       2 UNK        -0.2113 
     34 N          31.0662   26.4260   -1.2633 N.am      2 UNK        -0.4145 
     35 C          30.4812   25.8332   -0.2078 C.2       1 UNK         0.5006 
     36 O          29.4126   26.2103    0.2741 O.2       1 UNK        -0.5103 
     37 C          26.7456   27.2474    2.3233 C.2       5 UNK         0.5055 
     38 O          26.2650   27.8751    1.3737 O.2       5 UNK        -0.5220 
     39 N          27.4267   27.8192    3.3199 N.am      6 UNK        -0.4450 
     40 CA         27.7021   29.2459    3.4545 C.3       6 UNK         0.0367 
     41 CB         28.8098   29.6681    2.4644 C.3       6 UNK        -0.1929 
     42 C          28.0933   29.5421    4.9092 C.2       6 UNK         0.5070 
     43 O          28.1661   28.6244    5.7297 O.2       6 UNK        -0.5237 
     44 N          28.3494   30.8219    5.1960 N.am      7 UNK        -0.4739 
     45 CA         28.9011   31.3113    6.4639 C.3       7 UNK         0.0276 
     46 CB         27.7804   31.9818    7.2804 C.3       7 UNK        -0.1927 
     47 C          30.0909   32.2597    6.2162 C.2       7 UNK         0.5013 
     48 O          30.4358   33.0514    7.0946 O.2       7 UNK        -0.5193 
     49 N          30.6854   32.1770    5.0204 N.am      8 UNK        -0.4253 
     50 CA         31.7888   32.9879    4.5174 C.3       8 UNK         0.0242 
     51 CB         31.2891   34.4082    4.1752 C.3       8 UNK        -0.2000 
     52 C          32.3701   32.2710    3.2886 C.2       8 UNK         0.4948 
     53 O          31.9441   31.1523    2.9797 O.2       8 UNK        -0.5275 
     54 N          33.3234   32.9229    2.6061 N.am      9 UNK        -0.4246 
     55 CA         34.0075   32.4600    1.3917 C.3       9 UNK         0.0261 
     56 CB         33.0318   32.4308    0.1910 C.3       9 UNK        -0.1959 
     57 C          34.7352   31.1285    1.6455 C.2       9 UNK         0.5033 
     58 O          35.7301   31.1243    2.3725 O.2       9 UNK        -0.5390 
     59 N          34.2029   30.0244    1.1032 N.am      10 UNK        -0.4215 
     60 CA         34.6680   28.6528    1.3349 C.3       10 UNK         0.0240 
     61 CB         33.8279   27.6871    0.4837 C.3       10 UNK        -0.1982 
     62 C          34.6292   28.2251    2.8148 C.2       10 UNK         0.4970 
     63 O          35.4492   27.4007    3.2203 O.2       10 UNK        -0.4916 
     64 N          33.6986   28.8002    3.5862 N.am      11 UNK        -0.4279 
     65 CA         33.5744   28.6120    5.0381 C.3       11 UNK         0.1003 
     66 C          34.4192   29.6224    5.8692 C.2       11 UNK         0.5709 
     67 N          35.1791   30.5306    5.2656 N.am      11 UNK        -0.7358 
     68 O          34.3982   29.5734    7.0966 O.2       11 UNK        -0.4999 
     69 C69        32.0885   28.6113    5.4791 C.3       12 UNK        -0.0954 
     70 S70        31.1197   27.3163    4.6390 S.3       12 UNK        -0.2268 
     71 C71        30.7642   26.1871    6.0178 C.3       12 UNK         0.0203 
     72 H72        32.3153   21.3946   -2.5230 H         1 UNK         0.0888 
     73 H73        32.4836   22.8322   -3.5347 H         1 UNK         0.0888 
     74 H74        33.5576   22.5925   -2.1544 H         1 UNK         0.0888 
     75 H75        33.0036   23.8483   -0.4056 H         1 UNK         0.3017 
     76 H76        31.9389   25.0559    1.1016 H         1 UNK         0.0873 
     77 H77        29.5420   23.2141    0.6088 H         1 UNK         0.0745 
     78 H78        29.7000   24.3159    1.9504 H         1 UNK         0.0745 
     79 H79        30.3401   21.1425    4.0386 H         1 UNK         0.0705 
     80 H80        29.0880   21.4728    2.8622 H         1 UNK         0.0705 
     81 H81        31.3474   23.9737    4.5685 H         1 UNK         0.1334 
     82 H82        28.0777   25.9916    6.4599 H         1 UNK         0.1417 
     83 H83        27.3672   22.4065    4.2164 H         1 UNK         0.1562 
     84 H84        25.5513   23.3893    5.4211 H         1 UNK         0.0748 
     85 H85        25.9654   24.3692    6.8046 H         1 UNK         0.0748 
     86 H86        24.4079   25.7023    2.7211 H         1 UNK         0.0940 
     87 H87        25.1791   24.1962    3.1159 H         1 UNK         0.0940 
     88 H88        27.4593   25.2965    2.8491 H         1 UNK         0.0703 
     89 H89        26.4362   26.0197    0.3415 H         1 UNK         0.3081 
     90 H90        27.6378   23.1891   -1.1395 H         1 UNK         0.0719 
     91 H91        25.4624   22.0437   -0.9740 H         1 UNK         0.0809 
     92 H92        24.5983   23.5337   -1.3073 H         1 UNK         0.0809 
     93 H93        25.6149   22.8023   -2.5499 H         1 UNK         0.0809 
     94 H94        27.8894   25.0827   -2.2025 H         1 UNK         0.2990 
     95 H95        26.7551   26.9142   -3.8339 H         1 UNK         0.0690 
     96 H96        26.2035   29.2992   -3.3457 H         1 UNK         0.0788 
     97 H97        25.6918   28.8565   -1.7161 H         1 UNK         0.0788 
     98 H98        24.8067   28.2625   -3.1154 H         1 UNK         0.0788 
     99 H99        28.1097   28.3162   -1.6157 H         1 UNK         0.2993 
    100 H100       31.2145   27.6694   -2.9057 H         1 UNK         0.0949 
    101 H101       30.0172   29.6317   -1.9138 H         1 UNK         0.0767 
    102 H102       29.7540   28.7344   -0.4213 H         1 UNK         0.0767 
    103 H103       31.3832   29.1409   -0.9335 H         1 UNK         0.0767 
    104 H104       31.9217   26.0146   -1.6080 H         1 UNK         0.3013 
    105 H105       27.7419   27.2660    4.1096 H         1 UNK         0.3121 
    106 H106       26.7874   29.8015    3.2379 H         1 UNK         0.0774 
    107 H107       29.7406   29.1295    2.6455 H         1 UNK         0.0815 
    108 H108       28.5114   29.4756    1.4349 H         1 UNK         0.0815 
    109 H109       29.0309   30.7333    2.5305 H         1 UNK         0.0815 
    110 H110       28.2240   31.5183    4.4737 H         1 UNK         0.2987 
    111 H111       29.2990   30.4764    7.0455 H         1 UNK         0.0949 
    112 H112       27.3783   32.8566    6.7684 H         1 UNK         0.0806 
    113 H113       28.1446   32.3102    8.2547 H         1 UNK         0.0806 
    114 H114       26.9571   31.2907    7.4619 H         1 UNK         0.0806 
    115 H115       30.4192   31.4356    4.3834 H         1 UNK         0.3010 
    116 H116       32.5678   33.0390    5.2809 H         1 UNK         0.0829 
    117 H117       30.5464   34.3899    3.3765 H         1 UNK         0.0813 
    118 H118       30.8339   34.8919    5.0395 H         1 UNK         0.0813 
    119 H119       32.1049   35.0544    3.8502 H         1 UNK         0.0813 
    120 H120       33.6357   33.8156    2.9617 H         1 UNK         0.3038 
    121 H121       34.7833   33.1938    1.1676 H         1 UNK         0.0769 
    122 H122       33.5371   32.1076   -0.7202 H         1 UNK         0.0811 
    123 H123       32.6320   33.4256   -0.0054 H         1 UNK         0.0811 
    124 H124       32.1814   31.7678    0.3543 H         1 UNK         0.0811 
    125 H125       33.3603   30.1324    0.5582 H         1 UNK         0.3204 
    126 H126       35.7067   28.5961    1.0031 H         1 UNK         0.0748 
    127 H127       34.1731   26.6592    0.6040 H         1 UNK         0.0771 
    128 H128       32.7764   27.7151    0.7725 H         1 UNK         0.0771 
    129 H129       33.8941   27.9283   -0.5774 H         1 UNK         0.0771 
    130 H130       33.0715   29.4880    3.1814 H         1 UNK         0.2980 
    131 H131       33.9773   27.6301    5.2926 H         1 UNK         0.0545 
    132 H132       35.2556   30.5740    4.2558 H         1 UNK         0.3459 
    133 H133       35.7231   31.1612    5.8321 H         1 UNK         0.3459 
    134 H134       32.0030   28.4769    6.5587 H         1 UNK         0.0616 
    135 H135       31.6252   29.5720    5.2575 H         1 UNK         0.0616 
    136 H136       30.3280   26.7500    6.8448 H         1 UNK         0.0634 
    137 H137       31.6949   25.7521    6.3846 H         1 UNK         0.0634 
@<TRIPOS>BOND
     1    1    2 1    
     2    1   72 1    
     3    1   73 1    
     4    1   74 1    
     5    2    3 2    
     6    2    4 am   BACKBONE|DICT|INTERRES
     7    4    5 1    
     8    4   75 1    
     9    5    6 1    
    10    5   35 1    
    11    5   76 1    
    12    6    7 1    
    13    6   77 1    
    14    6   78 1    
    15    7    8 1    
    16    8    9 1    
    17    8   79 1    
    18    8   80 1    
    19    9   10 ar   
    20    9   14 ar   
    21   10   11 ar   
    22   10   81 1    
    23   11   12 ar   
    24   11   71 1    
    25   12   13 ar   
    26   12   82 1    
    27   13   14 ar   
    28   13   15 1    
    29   14   83 1    
    30   15   16 1    
    31   15   84 1    
    32   15   85 1    
    33   16   17 1    
    34   17   18 1    
    35   17   86 1    
    36   17   87 1    
    37   18   19 1    
    38   18   37 1    
    39   18   88 1    
    40   19   20 am   BACKBONE|DICT|INTERRES
    41   19   89 1    
    42   20   21 2    
    43   20   22 1    
    44   22   23 1    
    45   22   24 1    
    46   22   90 1    
    47   23   91 1    
    48   23   92 1    
    49   23   93 1    
    50   24   25 am   BACKBONE|DICT|INTERRES
    51   24   94 1    
    52   25   26 2    
    53   25   27 1    
    54   27   28 1    
    55   27   29 1    
    56   27   95 1    
    57   28   96 1    
    58   28   97 1    
    59   28   98 1    
    60   29   30 am   BACKBONE|DICT|INTERRES
    61   29   99 1    
    62   30   31 2    
    63   30   32 1    
    64   32   33 1    
    65   32   34 1    
    66   32  100 1    
    67   33  101 1    
    68   33  102 1    
    69   33  103 1    
    70   34   35 am   BACKBONE|DICT|INTERRES
    71   34  104 1    
    72   35   36 2    
    73   37   38 2    
    74   37   39 am   BACKBONE|DICT|INTERRES
    75   39   40 1    
    76   39  105 1    
    77   40   41 1    
    78   40   42 1    
    79   40  106 1    
    80   41  107 1    
    81   41  108 1    
    82   41  109 1    
    83   42   43 2    
    84   42   44 am   BACKBONE|DICT|INTERRES
    85   44   45 1    
    86   44  110 1    
    87   45   46 1    
    88   45   47 1    
    89   45  111 1    
    90   46  112 1    
    91   46  113 1    
    92   46  114 1    
    93   47   48 2    
    94   47   49 am   BACKBONE|DICT|INTERRES
    95   49   50 1    
    96   49  115 1    
    97   50   51 1    
    98   50   52 1    
    99   50  116 1    
   100   51  117 1    
   101   51  118 1    
   102   51  119 1    
   103   52   53 2    
   104   52   54 am   BACKBONE|DICT|INTERRES
   105   54   55 1    
   106   54  120 1    
   107   55   56 1    
   108   55   57 1    
   109   55  121 1    
   110   56  122 1    
   111   56  123 1    
   112   56  124 1    
   113   57   58 2    
   114   57   59 am   BACKBONE|DICT|INTERRES
   115   59   60 1    
   116   59  125 1    
   117   60   61 1    
   118   60   62 1    
   119   60  126 1    
   120   61  127 1    
   121   61  128 1    
   122   61  129 1    
   123   62   63 2    
   124   62   64 am   BACKBONE|DICT|INTERRES
   125   64   65 1    
   126   64  130 1    
   127   65   66 1    
   128   65   69 1    
   129   65  131 1    
   130   66   67 am   BACKBONE|DICT|INTERRES
   131   66   68 2    
   132   67  132 1    
   133   67  133 1    
   134   69   70 1    
   135   69  134 1    
   136   69  135 1    
   137   70   71 1    
   138   71  136 1    
   139   71  137 1    
@<TRIPOS>SUBSTRUCTURE
     1 UNK         1 GROUP             0       ****    0 ROOT    
