@<TRIPOS>MOLECULE
3R136
137   139    1
SMALL
USER_CHARGES


@<TRIPOS>ATOM
      1 CA         27.0446   19.0583   -1.3327 C.3       0 UNK        -0.1979 
      2 C          27.8956   20.2441   -0.9016 C.2       0 UNK         0.4864 
      3 O          27.6217   20.8406    0.1401 O.2       0 UNK        -0.5359 
      4 N          28.9246   20.5778   -1.6932 N.am      1 UNK        -0.4318 
      5 CA         29.8355   21.7133   -1.5046 C.3       1 UNK         0.0824 
      6 C6         30.6631   21.6174   -0.1896 C.3       12 UNK        -0.0944 
      7 S7         32.2923   22.4172   -0.3504 S.3       12 UNK        -0.2672 
      8 C8         32.9006   22.3241    1.3600 C.3       12 UNK         0.0333 
      9 C9         32.2851   23.3982    2.2449 C.ar      12 UNK        -0.0807 
     10 C10        32.6944   24.7286    2.1093 C.ar      12 UNK        -0.0894 
     11 C11        32.1817   25.7163    2.9532 C.ar      12 UNK        -0.0804 
     12 C12        31.2528   25.3664    3.9348 C.ar      12 UNK        -0.0824 
     13 C13        30.8333   24.0422    4.0835 C.ar      12 UNK        -0.0762 
     14 C14        31.3463   23.0617    3.2270 C.ar      12 UNK        -0.0782 
     15 C15        29.8764   23.6639    5.2073 C.3       12 UNK         0.0230 
     16 S16        28.1272   23.8996    4.7567 S.3       12 UNK        -0.2608 
     17 C17        27.9273   25.7102    4.9033 C.3       12 UNK        -0.0989 
     18 CA         27.6189   26.3619    3.5265 C.3       5 UNK         0.0716 
     19 N          26.3370   25.9209    2.9600 N.am      5 UNK        -0.4135 
     20 C          25.1093   26.1447    3.4577 C.2       4 UNK         0.5031 
     21 O          24.9017   26.6941    4.5409 O.2       4 UNK        -0.5229 
     22 CA         23.9066   25.7251    2.5812 C.3       4 UNK         0.0329 
     23 CB         22.6740   26.6252    2.8134 C.3       4 UNK        -0.2001 
     24 N          24.2117   25.6452    1.1449 N.am      4 UNK        -0.4303 
     25 C          24.7175   26.6163    0.3696 C.2       3 UNK         0.5044 
     26 O          24.9755   27.7558    0.7614 O.2       3 UNK        -0.5152 
     27 CA         25.0812   26.2107   -1.0676 C.3       3 UNK         0.0319 
     28 CB         24.4843   27.1962   -2.0864 C.3       3 UNK        -0.2001 
     29 N          26.5323   26.1270   -1.2696 N.am      3 UNK        -0.4354 
     30 C          27.3890   25.3851   -0.5518 C.2       2 UNK         0.4964 
     31 O          27.0696   24.7058    0.4269 O.2       2 UNK        -0.5047 
     32 CA         28.8635   25.4286   -0.9865 C.3       2 UNK         0.0288 
     33 CB         29.6673   26.3697   -0.0747 C.3       2 UNK        -0.2113 
     34 N          29.4775   24.0997   -0.9612 N.am      2 UNK        -0.4145 
     35 C          29.1057   23.0609   -1.7233 C.2       1 UNK         0.5006 
     36 O          28.2462   23.1422   -2.6063 O.2       1 UNK        -0.5103 
     37 C          27.7893   27.9037    3.5369 C.2       5 UNK         0.5055 
     38 O          28.7320   28.4011    4.1551 O.2       5 UNK        -0.5220 
     39 N          26.9186   28.6489    2.8375 N.am      6 UNK        -0.4450 
     40 CA         26.8866   30.1127    2.8150 C.3       6 UNK         0.0367 
     41 CB         25.4243   30.5765    2.6757 C.3       6 UNK        -0.1929 
     42 C          27.7985   30.6796    1.7125 C.2       6 UNK         0.5070 
     43 O          27.3420   31.4392    0.8557 O.2       6 UNK        -0.5237 
     44 N          29.0776   30.2913    1.7458 N.am      7 UNK        -0.4739 
     45 CA         30.1219   30.8093    0.8615 C.3       7 UNK         0.0276 
     46 CB         31.3038   29.8280    0.8624 C.3       7 UNK        -0.1927 
     47 C          30.6119   32.1906    1.3209 C.2       7 UNK         0.5013 
     48 O          30.4991   32.5281    2.5022 O.2       7 UNK        -0.5193 
     49 N          31.2454   32.9259    0.3992 N.am      8 UNK        -0.4253 
     50 CA         32.0252   34.1322    0.6901 C.3       8 UNK         0.0242 
     51 CB         32.0180   35.0468   -0.5497 C.3       8 UNK        -0.2000 
     52 C          33.4485   33.7391    1.1356 C.2       8 UNK         0.4948 
     53 O          34.4268   34.0904    0.4731 O.2       8 UNK        -0.5275 
     54 N          33.5311   32.9718    2.2267 N.am      9 UNK        -0.4246 
     55 CA         34.7443   32.3900    2.7896 C.3       9 UNK         0.0261 
     56 CB         35.1075   31.1043    2.0213 C.3       9 UNK        -0.1959 
     57 C          34.4956   32.0901    4.2714 C.2       9 UNK         0.5033 
     58 O          33.3388   32.0401    4.6992 O.2       9 UNK        -0.5390 
     59 N          35.5820   31.8631    5.0223 N.am      10 UNK        -0.4215 
     60 CA         35.5789   31.6035    6.4689 C.3       10 UNK         0.0240 
     61 CB         37.0300   31.4858    6.9642 C.3       10 UNK        -0.1982 
     62 C          34.7610   30.3738    6.9094 C.2       10 UNK         0.4970 
     63 O          34.2904   30.3466    8.0474 O.2       10 UNK        -0.4916 
     64 N          34.5972   29.3946    6.0112 N.am      11 UNK        -0.4279 
     65 CA         33.7141   28.2346    6.1909 C.3       11 UNK         0.1003 
     66 C          32.1907   28.5499    6.1263 C.2       11 UNK         0.5709 
     67 N          31.7607   29.7096    5.6421 N.am      11 UNK        -0.7358 
     68 O          31.3832   27.7241    6.5437 O.2       11 UNK        -0.4999 
     69 C69        34.1100   27.0560    5.2605 C.3       12 UNK        -0.0954 
     70 S70        34.2789   27.4883    3.4901 S.3       12 UNK        -0.2268 
     71 C71        32.6207   27.1645    2.8059 C.3       12 UNK         0.0203 
     72 H72        26.0122   19.3731   -1.4826 H         1 UNK         0.0888 
     73 H73        27.4020   18.6149   -2.2620 H         1 UNK         0.0888 
     74 H74        27.0578   18.2874   -0.5627 H         1 UNK         0.0888 
     75 H75        29.0680   20.0578   -2.5479 H         1 UNK         0.3017 
     76 H76        30.5330   21.6339   -2.3401 H         1 UNK         0.0873 
     77 H77        30.1161   22.0206    0.6651 H         1 UNK         0.0745 
     78 H78        30.8530   20.5702    0.0519 H         1 UNK         0.0745 
     79 H79        33.9844   22.4491    1.3519 H         1 UNK         0.0705 
     80 H80        32.7138   21.3271    1.7623 H         1 UNK         0.0705 
     81 H81        33.4221   24.9934    1.3541 H         1 UNK         0.1334 
     82 H82        30.8731   26.1305    4.5960 H         1 UNK         0.1417 
     83 H83        31.0343   22.0325    3.3432 H         1 UNK         0.1562 
     84 H84        30.1064   24.2369    6.1071 H         1 UNK         0.0748 
     85 H85        30.0226   22.6171    5.4778 H         1 UNK         0.0748 
     86 H86        28.8213   26.1357    5.3582 H         1 UNK         0.0940 
     87 H87        27.1291   25.9136    5.6178 H         1 UNK         0.0940 
     88 H88        28.3779   26.0097    2.8279 H         1 UNK         0.0703 
     89 H89        26.4139   25.4408    2.0661 H         1 UNK         0.3081 
     90 H90        23.6449   24.7138    2.8958 H         1 UNK         0.0719 
     91 H91        22.8877   27.6692    2.5809 H         1 UNK         0.0809 
     92 H92        21.8306   26.3104    2.1990 H         1 UNK         0.0809 
     93 H93        22.3466   26.5843    3.8531 H         1 UNK         0.0809 
     94 H94        24.0943   24.7299    0.7315 H         1 UNK         0.2990 
     95 H95        24.6642   25.2223   -1.2712 H         1 UNK         0.0690 
     96 H96        24.6674   26.8703   -3.1105 H         1 UNK         0.0788 
     97 H97        24.9013   28.1979   -1.9723 H         1 UNK         0.0788 
     98 H98        23.4036   27.2782   -1.9622 H         1 UNK         0.0788 
     99 H99        26.8995   26.6765   -2.0329 H         1 UNK         0.2993 
    100 H100       28.9183   25.8024   -2.0111 H         1 UNK         0.0949 
    101 H101       29.7494   25.9775    0.9392 H         1 UNK         0.0767 
    102 H102       30.6787   26.5169   -0.4543 H         1 UNK         0.0767 
    103 H103       29.1951   27.3512   -0.0109 H         1 UNK         0.0767 
    104 H104       30.1978   23.9446   -0.2695 H         1 UNK         0.3013 
    105 H105       26.2153   28.1866    2.2678 H         1 UNK         0.3121 
    106 H106       27.2600   30.4961    3.7670 H         1 UNK         0.0774 
    107 H107       25.3528   31.6635    2.7285 H         1 UNK         0.0815 
    108 H108       24.9907   30.2673    1.7240 H         1 UNK         0.0815 
    109 H109       24.8019   30.1714    3.4739 H         1 UNK         0.0815 
    110 H110       29.3705   29.7035    2.5173 H         1 UNK         0.2987 
    111 H111       29.7228   30.8895   -0.1524 H         1 UNK         0.0949 
    112 H112       31.7750   29.7781    1.8447 H         1 UNK         0.0806 
    113 H113       30.9904   28.8240    0.5839 H         1 UNK         0.0806 
    114 H114       32.0727   30.1334    0.1515 H         1 UNK         0.0806 
    115 H115       31.3293   32.5591   -0.5384 H         1 UNK         0.3010 
    116 H116       31.5619   34.6815    1.5128 H         1 UNK         0.0829 
    117 H117       31.0028   35.3355   -0.8227 H         1 UNK         0.0813 
    118 H118       32.5744   35.9655   -0.3593 H         1 UNK         0.0813 
    119 H119       32.4733   34.5627   -1.4146 H         1 UNK         0.0813 
    120 H120       32.6853   32.7593    2.7499 H         1 UNK         0.3038 
    121 H121       35.5594   33.1129    2.7143 H         1 UNK         0.0769 
    122 H122       36.0109   30.6426    2.4212 H         1 UNK         0.0811 
    123 H123       35.2936   31.3104    0.9671 H         1 UNK         0.0811 
    124 H124       34.3092   30.3634    2.0789 H         1 UNK         0.0811 
    125 H125       36.4893   31.9119    4.5803 H         1 UNK         0.3204 
    126 H126       35.1253   32.4729    6.9495 H         1 UNK         0.0748 
    127 H127       37.0633   31.3209    8.0423 H         1 UNK         0.0771 
    128 H128       37.5516   30.6526    6.4913 H         1 UNK         0.0771 
    129 H129       37.5950   32.3960    6.7619 H         1 UNK         0.0771 
    130 H130       35.0094   29.4942    5.0961 H         1 UNK         0.2980 
    131 H131       33.8771   27.8791    7.2103 H         1 UNK         0.0545 
    132 H132       30.7676   29.8732    5.5999 H         1 UNK         0.3459 
    133 H133       32.4034   30.4275    5.3232 H         1 UNK         0.3459 
    134 H134       33.4321   26.2115    5.3838 H         1 UNK         0.0616 
    135 H135       35.0828   26.6780    5.5778 H         1 UNK         0.0616 
    136 H136       31.8970   27.8342    3.2721 H         1 UNK         0.0634 
    137 H137       32.6354   27.4190    1.7460 H         1 UNK         0.0634 
@<TRIPOS>BOND
     1    1    2 1    
     2    1   72 1    
     3    1   73 1    
     4    1   74 1    
     5    2    3 2    
     6    2    4 am   BACKBONE|DICT|INTERRES
     7    4    5 1    
     8    4   75 1    
     9    5    6 1    
    10    5   35 1    
    11    5   76 1    
    12    6    7 1    
    13    6   77 1    
    14    6   78 1    
    15    7    8 1    
    16    8    9 1    
    17    8   79 1    
    18    8   80 1    
    19    9   10 ar   
    20    9   14 ar   
    21   10   11 ar   
    22   10   81 1    
    23   11   12 ar   
    24   11   71 1    
    25   12   13 ar   
    26   12   82 1    
    27   13   14 ar   
    28   13   15 1    
    29   14   83 1    
    30   15   16 1    
    31   15   84 1    
    32   15   85 1    
    33   16   17 1    
    34   17   18 1    
    35   17   86 1    
    36   17   87 1    
    37   18   19 1    
    38   18   37 1    
    39   18   88 1    
    40   19   20 am   BACKBONE|DICT|INTERRES
    41   19   89 1    
    42   20   21 2    
    43   20   22 1    
    44   22   23 1    
    45   22   24 1    
    46   22   90 1    
    47   23   91 1    
    48   23   92 1    
    49   23   93 1    
    50   24   25 am   BACKBONE|DICT|INTERRES
    51   24   94 1    
    52   25   26 2    
    53   25   27 1    
    54   27   28 1    
    55   27   29 1    
    56   27   95 1    
    57   28   96 1    
    58   28   97 1    
    59   28   98 1    
    60   29   30 am   BACKBONE|DICT|INTERRES
    61   29   99 1    
    62   30   31 2    
    63   30   32 1    
    64   32   33 1    
    65   32   34 1    
    66   32  100 1    
    67   33  101 1    
    68   33  102 1    
    69   33  103 1    
    70   34   35 am   BACKBONE|DICT|INTERRES
    71   34  104 1    
    72   35   36 2    
    73   37   38 2    
    74   37   39 am   BACKBONE|DICT|INTERRES
    75   39   40 1    
    76   39  105 1    
    77   40   41 1    
    78   40   42 1    
    79   40  106 1    
    80   41  107 1    
    81   41  108 1    
    82   41  109 1    
    83   42   43 2    
    84   42   44 am   BACKBONE|DICT|INTERRES
    85   44   45 1    
    86   44  110 1    
    87   45   46 1    
    88   45   47 1    
    89   45  111 1    
    90   46  112 1    
    91   46  113 1    
    92   46  114 1    
    93   47   48 2    
    94   47   49 am   BACKBONE|DICT|INTERRES
    95   49   50 1    
    96   49  115 1    
    97   50   51 1    
    98   50   52 1    
    99   50  116 1    
   100   51  117 1    
   101   51  118 1    
   102   51  119 1    
   103   52   53 2    
   104   52   54 am   BACKBONE|DICT|INTERRES
   105   54   55 1    
   106   54  120 1    
   107   55   56 1    
   108   55   57 1    
   109   55  121 1    
   110   56  122 1    
   111   56  123 1    
   112   56  124 1    
   113   57   58 2    
   114   57   59 am   BACKBONE|DICT|INTERRES
   115   59   60 1    
   116   59  125 1    
   117   60   61 1    
   118   60   62 1    
   119   60  126 1    
   120   61  127 1    
   121   61  128 1    
   122   61  129 1    
   123   62   63 2    
   124   62   64 am   BACKBONE|DICT|INTERRES
   125   64   65 1    
   126   64  130 1    
   127   65   66 1    
   128   65   69 1    
   129   65  131 1    
   130   66   67 am   BACKBONE|DICT|INTERRES
   131   66   68 2    
   132   67  132 1    
   133   67  133 1    
   134   69   70 1    
   135   69  134 1    
   136   69  135 1    
   137   70   71 1    
   138   71  136 1    
   139   71  137 1    
@<TRIPOS>SUBSTRUCTURE
     1 UNK         1 GROUP             0       ****    0 ROOT    
