@<TRIPOS>MOLECULE
3R136
137   139    1
SMALL
USER_CHARGES


@<TRIPOS>ATOM
      1 CA         26.6000   17.3565    1.1750 C.3       0 UNK        -0.1979 
      2 C          27.7730   18.1985    0.6946 C.2       0 UNK         0.4864 
      3 O          28.8880   17.6868    0.5824 O.2       0 UNK        -0.5359 
      4 N          27.5300   19.4816    0.4091 N.am      1 UNK        -0.4318 
      5 CA         28.5063   20.4438   -0.0960 C.3       1 UNK         0.0824 
      6 C6         29.3988   21.0167    1.0381 C.3       12 UNK        -0.0944 
      7 S7         30.9810   21.6763    0.4151 S.3       12 UNK        -0.2672 
      8 C8         30.7149   23.4714    0.5407 C.3       12 UNK         0.0333 
      9 C9         30.9966   23.9959    1.9395 C.ar      12 UNK        -0.0807 
     10 C10        32.3085   24.3135    2.3032 C.ar      12 UNK        -0.0894 
     11 C11        32.5843   24.8439    3.5648 C.ar      12 UNK        -0.0804 
     12 C12        31.5411   25.0345    4.4737 C.ar      12 UNK        -0.0824 
     13 C13        30.2224   24.7160    4.1283 C.ar      12 UNK        -0.0762 
     14 C14        29.9567   24.1990    2.8551 C.ar      12 UNK        -0.0782 
     15 C15        29.0973   24.8688    5.1489 C.3       12 UNK         0.0230 
     16 S16        29.1473   26.4618    6.0412 S.3       12 UNK        -0.2608 
     17 C17        27.7730   27.4106    5.3114 C.3       12 UNK        -0.0989 
     18 CA         28.2608   28.4746    4.2990 C.3       5 UNK         0.0716 
     19 N          28.7296   27.8694    3.0497 N.am      5 UNK        -0.4135 
     20 C          29.3412   28.5282    2.0558 C.2       4 UNK         0.5031 
     21 O          29.6867   29.7069    2.1326 O.2       4 UNK        -0.5229 
     22 CA         29.5463   27.7670    0.7299 C.3       4 UNK         0.0329 
     23 CB         30.9787   27.2256    0.6291 C.3       4 UNK        -0.2001 
     24 N          28.5791   26.6809    0.5067 N.am      4 UNK        -0.4303 
     25 C          27.2556   26.8666    0.3863 C.2       3 UNK         0.5044 
     26 O          26.7258   27.9720    0.5120 O.2       3 UNK        -0.5152 
     27 CA         26.3733   25.6232    0.1436 C.3       3 UNK         0.0319 
     28 CB         24.9918   25.9949   -0.4352 C.3       3 UNK        -0.2001 
     29 N          26.9832   24.5580   -0.6652 N.am      3 UNK        -0.4354 
     30 C          27.4872   24.6482   -1.9049 C.2       2 UNK         0.4964 
     31 O          27.6259   25.7159   -2.5029 O.2       2 UNK        -0.5047 
     32 CA         27.8876   23.3270   -2.6080 C.3       2 UNK         0.0288 
     33 CB         28.8967   23.5602   -3.7492 C.3       2 UNK        -0.2113 
     34 N          28.4205   22.2750   -1.7299 N.am      2 UNK        -0.4145 
     35 C          27.7296   21.5391   -0.8491 C.2       1 UNK         0.5006 
     36 O          26.5329   21.7185   -0.6035 O.2       1 UNK        -0.5103 
     37 C          27.1585   29.5308    4.0622 C.2       5 UNK         0.5055 
     38 O          27.1659   30.5601    4.7377 O.2       5 UNK        -0.5220 
     39 N          26.2489   29.2848    3.1053 N.am      6 UNK        -0.4450 
     40 CA         25.1845   30.2210    2.7254 C.3       6 UNK         0.0367 
     41 CB         24.0662   29.4722    1.9826 C.3       6 UNK        -0.1929 
     42 C          25.7199   31.3851    1.8758 C.2       6 UNK         0.5070 
     43 O          25.2005   32.4965    1.9742 O.2       6 UNK        -0.5237 
     44 N          26.7757   31.1222    1.0924 N.am      7 UNK        -0.4739 
     45 CA         27.5442   32.1309    0.3549 C.3       7 UNK         0.0276 
     46 CB         28.3619   31.4312   -0.7433 C.3       7 UNK        -0.1927 
     47 C          28.4674   32.9775    1.2571 C.2       7 UNK         0.5013 
     48 O          29.0062   33.9776    0.7816 O.2       7 UNK        -0.5193 
     49 N          28.6351   32.5615    2.5223 N.am      8 UNK        -0.4253 
     50 CA         29.4876   33.1420    3.5639 C.3       8 UNK         0.0242 
     51 CB         29.0031   34.5551    3.9543 C.3       8 UNK        -0.2000 
     52 C          30.9839   33.0854    3.2028 C.2       8 UNK         0.4948 
     53 O          31.6983   34.0768    3.3713 O.2       8 UNK        -0.5275 
     54 N          31.4311   31.9233    2.7061 N.am      9 UNK        -0.4246 
     55 CA         32.8303   31.6383    2.3837 C.3       9 UNK         0.0261 
     56 CB         32.9091   30.3025    1.6306 C.3       9 UNK        -0.1959 
     57 C          33.7240   31.5942    3.6350 C.2       9 UNK         0.5033 
     58 O          33.2595   31.2327    4.7204 O.2       9 UNK        -0.5390 
     59 N          35.0102   31.9164    3.4409 N.am      10 UNK        -0.4215 
     60 CA         36.0397   31.9986    4.4845 C.3       10 UNK         0.0240 
     61 CB         37.3403   32.5367    3.8647 C.3       10 UNK        -0.1982 
     62 C          36.3113   30.6855    5.2432 C.2       10 UNK         0.4970 
     63 O          36.8329   30.7423    6.3578 O.2       10 UNK        -0.4916 
     64 N          35.9564   29.5401    4.6459 N.am      11 UNK        -0.4279 
     65 CA         36.0103   28.2195    5.2871 C.3       11 UNK         0.1003 
     66 C          34.9357   27.9867    6.3934 C.2       11 UNK         0.5709 
     67 N          33.9163   28.8298    6.5253 N.am      11 UNK        -0.7358 
     68 O          35.0401   27.0270    7.1533 O.2       11 UNK        -0.4999 
     69 C69        36.0528   27.0802    4.2337 C.3       12 UNK        -0.0954 
     70 S70        34.4870   26.8384    3.3219 S.3       12 UNK        -0.2268 
     71 C71        34.0092   25.1994    3.9534 C.3       12 UNK         0.0203 
     72 H72        26.4348   16.5205    0.4958 H         1 UNK         0.0888 
     73 H73        26.8076   16.9550    2.1665 H         1 UNK         0.0888 
     74 H74        25.6783   17.9357    1.2302 H         1 UNK         0.0888 
     75 H75        26.5900   19.8567    0.4653 H         1 UNK         0.3017 
     76 H76        29.1315   19.9248   -0.8266 H         1 UNK         0.0873 
     77 H77        28.8658   21.7620    1.6296 H         1 UNK         0.0745 
     78 H78        29.6606   20.2245    1.7413 H         1 UNK         0.0745 
     79 H79        31.3737   23.9684   -0.1732 H         1 UNK         0.0705 
     80 H80        29.6997   23.7236    0.2379 H         1 UNK         0.0705 
     81 H81        33.1144   24.1641    1.5974 H         1 UNK         0.1334 
     82 H82        31.7588   25.4286    5.4572 H         1 UNK         0.1417 
     83 H83        28.9424   23.9437    2.5819 H         1 UNK         0.1562 
     84 H84        29.1982   24.0671    5.8816 H         1 UNK         0.0748 
     85 H85        28.1218   24.7268    4.6827 H         1 UNK         0.0748 
     86 H86        27.2619   27.8895    6.1498 H         1 UNK         0.0940 
     87 H87        27.0349   26.7437    4.8626 H         1 UNK         0.0940 
     88 H88        29.1089   29.0045    4.7392 H         1 UNK         0.0703 
     89 H89        28.5253   26.8917    2.9173 H         1 UNK         0.3081 
     90 H90        29.4039   28.4803   -0.0835 H         1 UNK         0.0719 
     91 H91        31.6849   28.0362    0.4585 H         1 UNK         0.0809 
     92 H92        31.0958   26.5270   -0.1990 H         1 UNK         0.0809 
     93 H93        31.2850   26.7289    1.5482 H         1 UNK         0.0809 
     94 H94        28.9493   25.7529    0.3768 H         1 UNK         0.2990 
     95 H95        26.2046   25.1877    1.1294 H         1 UNK         0.0690 
     96 H96        24.3675   25.1118   -0.5718 H         1 UNK         0.0788 
     97 H97        25.0824   26.4945   -1.4005 H         1 UNK         0.0788 
     98 H98        24.4515   26.6682    0.2312 H         1 UNK         0.0788 
     99 H99        26.8566   23.6150   -0.3098 H         1 UNK         0.2993 
    100 H100       26.9697   22.9416   -3.0572 H         1 UNK         0.0949 
    101 H101       29.1244   22.6325   -4.2749 H         1 UNK         0.0767 
    102 H102       28.5023   24.2555   -4.4916 H         1 UNK         0.0767 
    103 H103       29.8343   23.9755   -3.3773 H         1 UNK         0.0767 
    104 H104       29.4059   22.0765   -1.8342 H         1 UNK         0.3013 
    105 H105       26.3519   28.4668    2.5169 H         1 UNK         0.3121 
    106 H106       24.7566   30.6443    3.6371 H         1 UNK         0.0774 
    107 H107       24.4052   29.0788    1.0243 H         1 UNK         0.0815 
    108 H108       23.2269   30.1380    1.7774 H         1 UNK         0.0815 
    109 H109       23.6824   28.6400    2.5727 H         1 UNK         0.0815 
    110 H110       27.0989   30.1643    1.0321 H         1 UNK         0.2987 
    111 H111       26.8404   32.8149   -0.1246 H         1 UNK         0.0949 
    112 H112       29.1541   30.8130   -0.3218 H         1 UNK         0.0806 
    113 H113       27.7339   30.7978   -1.3702 H         1 UNK         0.0806 
    114 H114       28.8392   32.1630   -1.3963 H         1 UNK         0.0806 
    115 H115       28.1662   31.7044    2.7822 H         1 UNK         0.3010 
    116 H116       29.3673   32.5030    4.4402 H         1 UNK         0.0829 
    117 H117       29.1384   35.2703    3.1425 H         1 UNK         0.0813 
    118 H118       27.9476   34.5506    4.2261 H         1 UNK         0.0813 
    119 H119       29.5573   34.9328    4.8144 H         1 UNK         0.0813 
    120 H120       30.7738   31.1549    2.5853 H         1 UNK         0.3038 
    121 H121       33.1872   32.4334    1.7255 H         1 UNK         0.0769 
    122 H122       33.9313   30.0773    1.3242 H         1 UNK         0.0811 
    123 H123       32.5646   29.4740    2.2516 H         1 UNK         0.0811 
    124 H124       32.2984   30.3260    0.7280 H         1 UNK         0.0811 
    125 H125       35.3022   32.1766    2.5093 H         1 UNK         0.3204 
    126 H126       35.6903   32.7225    5.2238 H         1 UNK         0.0748 
    127 H127       38.1200   32.6427    4.6205 H         1 UNK         0.0771 
    128 H128       37.7250   31.8700    3.0917 H         1 UNK         0.0771 
    129 H129       37.1918   33.5204    3.4186 H         1 UNK         0.0771 
    130 H130       35.5179   29.5759    3.7386 H         1 UNK         0.2980 
    131 H131       36.9662   28.1753    5.8127 H         1 UNK         0.0545 
    132 H132       33.2350   28.6658    7.2483 H         1 UNK         0.3459 
    133 H133       33.8048   29.6187    5.8980 H         1 UNK         0.3459 
    134 H134       36.3452   26.1450    4.7143 H         1 UNK         0.0616 
    135 H135       36.8377   27.2827    3.5035 H         1 UNK         0.0616 
    136 H136       34.6998   24.4486    3.5663 H         1 UNK         0.0634 
    137 H137       34.1127   25.1841    5.0396 H         1 UNK         0.0634 
@<TRIPOS>BOND
     1    1    2 1    
     2    1   72 1    
     3    1   73 1    
     4    1   74 1    
     5    2    3 2    
     6    2    4 am   BACKBONE|DICT|INTERRES
     7    4    5 1    
     8    4   75 1    
     9    5    6 1    
    10    5   35 1    
    11    5   76 1    
    12    6    7 1    
    13    6   77 1    
    14    6   78 1    
    15    7    8 1    
    16    8    9 1    
    17    8   79 1    
    18    8   80 1    
    19    9   10 ar   
    20    9   14 ar   
    21   10   11 ar   
    22   10   81 1    
    23   11   12 ar   
    24   11   71 1    
    25   12   13 ar   
    26   12   82 1    
    27   13   14 ar   
    28   13   15 1    
    29   14   83 1    
    30   15   16 1    
    31   15   84 1    
    32   15   85 1    
    33   16   17 1    
    34   17   18 1    
    35   17   86 1    
    36   17   87 1    
    37   18   19 1    
    38   18   37 1    
    39   18   88 1    
    40   19   20 am   BACKBONE|DICT|INTERRES
    41   19   89 1    
    42   20   21 2    
    43   20   22 1    
    44   22   23 1    
    45   22   24 1    
    46   22   90 1    
    47   23   91 1    
    48   23   92 1    
    49   23   93 1    
    50   24   25 am   BACKBONE|DICT|INTERRES
    51   24   94 1    
    52   25   26 2    
    53   25   27 1    
    54   27   28 1    
    55   27   29 1    
    56   27   95 1    
    57   28   96 1    
    58   28   97 1    
    59   28   98 1    
    60   29   30 am   BACKBONE|DICT|INTERRES
    61   29   99 1    
    62   30   31 2    
    63   30   32 1    
    64   32   33 1    
    65   32   34 1    
    66   32  100 1    
    67   33  101 1    
    68   33  102 1    
    69   33  103 1    
    70   34   35 am   BACKBONE|DICT|INTERRES
    71   34  104 1    
    72   35   36 2    
    73   37   38 2    
    74   37   39 am   BACKBONE|DICT|INTERRES
    75   39   40 1    
    76   39  105 1    
    77   40   41 1    
    78   40   42 1    
    79   40  106 1    
    80   41  107 1    
    81   41  108 1    
    82   41  109 1    
    83   42   43 2    
    84   42   44 am   BACKBONE|DICT|INTERRES
    85   44   45 1    
    86   44  110 1    
    87   45   46 1    
    88   45   47 1    
    89   45  111 1    
    90   46  112 1    
    91   46  113 1    
    92   46  114 1    
    93   47   48 2    
    94   47   49 am   BACKBONE|DICT|INTERRES
    95   49   50 1    
    96   49  115 1    
    97   50   51 1    
    98   50   52 1    
    99   50  116 1    
   100   51  117 1    
   101   51  118 1    
   102   51  119 1    
   103   52   53 2    
   104   52   54 am   BACKBONE|DICT|INTERRES
   105   54   55 1    
   106   54  120 1    
   107   55   56 1    
   108   55   57 1    
   109   55  121 1    
   110   56  122 1    
   111   56  123 1    
   112   56  124 1    
   113   57   58 2    
   114   57   59 am   BACKBONE|DICT|INTERRES
   115   59   60 1    
   116   59  125 1    
   117   60   61 1    
   118   60   62 1    
   119   60  126 1    
   120   61  127 1    
   121   61  128 1    
   122   61  129 1    
   123   62   63 2    
   124   62   64 am   BACKBONE|DICT|INTERRES
   125   64   65 1    
   126   64  130 1    
   127   65   66 1    
   128   65   69 1    
   129   65  131 1    
   130   66   67 am   BACKBONE|DICT|INTERRES
   131   66   68 2    
   132   67  132 1    
   133   67  133 1    
   134   69   70 1    
   135   69  134 1    
   136   69  135 1    
   137   70   71 1    
   138   71  136 1    
   139   71  137 1    
@<TRIPOS>SUBSTRUCTURE
     1 UNK         1 GROUP             0       ****    0 ROOT    
