@<TRIPOS>MOLECULE
3R136
137   139    1
SMALL
USER_CHARGES


@<TRIPOS>ATOM
      1 CA         27.1007   23.5454   -2.6583 C.3       0 UNK        -0.1979 
      2 C          27.3929   23.4228   -1.1708 C.2       0 UNK         0.4864 
      3 O          26.4932   23.0794   -0.4019 O.2       0 UNK        -0.5359 
      4 N          28.6370   23.7143   -0.7611 N.am      1 UNK        -0.4318 
      5 CA         29.1385   23.6592    0.6197 C.3       1 UNK         0.0824 
      6 C6         29.3042   22.2066    1.1568 C.3       12 UNK        -0.0944 
      7 S7         30.4716   21.2345    0.1388 S.3       12 UNK        -0.2672 
      8 C8         31.9437   21.0944    1.2139 C.3       12 UNK         0.0333 
      9 C9         32.4692   22.4453    1.6862 C.ar      12 UNK        -0.0807 
     10 C10        32.6352   22.6944    3.0528 C.ar      12 UNK        -0.0894 
     11 C11        33.0551   23.9504    3.5018 C.ar      12 UNK        -0.0804 
     12 C12        33.2940   24.9640    2.5678 C.ar      12 UNK        -0.0824 
     13 C13        33.1326   24.7297    1.2006 C.ar      12 UNK        -0.0762 
     14 C14        32.7581   23.4560    0.7639 C.ar      12 UNK        -0.0782 
     15 C15        33.3173   25.8654    0.2044 C.3       12 UNK         0.0230 
     16 S16        31.7662   26.1999   -0.6944 S.3       12 UNK        -0.2608 
     17 C17        31.8070   28.0134   -0.9144 C.3       12 UNK        -0.0989 
     18 CA         30.5906   28.7394   -0.2836 C.3       5 UNK         0.0716 
     19 N          29.3144   28.1832   -0.7420 N.am      5 UNK        -0.4135 
     20 C          28.0888   28.6143   -0.4195 C.2       4 UNK         0.5031 
     21 O          27.8671   29.4774    0.4309 O.2       4 UNK        -0.5229 
     22 CA         26.9142   28.0074   -1.1983 C.3       4 UNK         0.0329 
     23 CB         27.3202   27.2922   -2.5061 C.3       4 UNK        -0.2001 
     24 N          26.1646   27.0875   -0.3464 N.am      4 UNK        -0.4303 
     25 C          24.8375   26.9065   -0.4225 C.2       3 UNK         0.5044 
     26 O          24.1107   27.5550   -1.1773 O.2       3 UNK        -0.5152 
     27 CA         24.1908   25.8101    0.4465 C.3       3 UNK         0.0319 
     28 CB         23.4812   24.7666   -0.4345 C.3       3 UNK        -0.2001 
     29 N          25.1477   25.1198    1.3120 N.am      3 UNK        -0.4354 
     30 C          25.4660   25.5153    2.5524 C.2       2 UNK         0.4964 
     31 O          24.9508   26.4821    3.1130 O.2       2 UNK        -0.5047 
     32 CA         26.5455   24.7113    3.3008 C.3       2 UNK         0.0288 
     33 CB         25.8926   23.6911    4.2472 C.3       2 UNK        -0.2113 
     34 N          27.4980   24.0120    2.4309 N.am      2 UNK        -0.4145 
     35 C          28.3018   24.5874    1.5240 C.2       1 UNK         0.5006 
     36 O          28.3635   25.8061    1.3425 O.2       1 UNK        -0.5103 
     37 C          30.7251   28.8935    1.2448 C.2       5 UNK         0.5055 
     38 O          31.2233   29.9288    1.6837 O.2       5 UNK        -0.5220 
     39 N          30.2372   27.9188    2.0260 N.am      6 UNK        -0.4450 
     40 CA         30.3047   27.9505    3.4906 C.3       6 UNK         0.0367 
     41 CB         30.1745   26.5282    4.0508 C.3       6 UNK        -0.1929 
     42 C          29.2765   28.8916    4.1398 C.2       6 UNK         0.5070 
     43 O          29.4369   29.2228    5.3143 O.2       6 UNK        -0.5237 
     44 N          28.2476   29.3073    3.3892 N.am      7 UNK        -0.4739 
     45 CA         27.3292   30.3713    3.7954 C.3       7 UNK         0.0276 
     46 CB         25.9382   30.1179    3.1910 C.3       7 UNK        -0.1927 
     47 C          27.8717   31.7460    3.3727 C.2       7 UNK         0.5013 
     48 O          27.7095   32.7133    4.1174 O.2       7 UNK        -0.5193 
     49 N          28.4976   31.8087    2.1883 N.am      8 UNK        -0.4253 
     50 CA         29.0721   33.0238    1.6098 C.3       8 UNK         0.0242 
     51 CB         29.3345   32.7989    0.1117 C.3       8 UNK        -0.2000 
     52 C          30.3533   33.4996    2.3173 C.2       8 UNK         0.4948 
     53 O          30.4979   34.7020    2.5448 O.2       8 UNK        -0.5275 
     54 N          31.2642   32.5701    2.6293 N.am      9 UNK        -0.4246 
     55 CA         32.5736   32.8351    3.2238 C.3       9 UNK         0.0261 
     56 CB         33.5732   33.2579    2.1231 C.3       9 UNK        -0.1959 
     57 C          33.0135   31.6115    4.0463 C.2       9 UNK         0.5033 
     58 O          32.2037   31.0812    4.8091 O.2       9 UNK        -0.5390 
     59 N          34.2804   31.1907    3.9055 N.am      10 UNK        -0.4215 
     60 CA         34.8583   30.0049    4.5487 C.3       10 UNK         0.0240 
     61 CB         36.3493   29.9100    4.1853 C.3       10 UNK        -0.1982 
     62 C          34.1165   28.7214    4.1188 C.2       10 UNK         0.4970 
     63 O          33.8150   28.5929    2.9334 O.2       10 UNK        -0.4916 
     64 N          33.8322   27.7586    5.0051 N.am      11 UNK        -0.4279 
     65 CA         34.3325   27.5740    6.3775 C.3       11 UNK         0.1003 
     66 C          33.6678   28.4610    7.4728 C.2       11 UNK         0.5709 
     67 N          32.7036   29.3164    7.1594 N.am      11 UNK        -0.7358 
     68 O          34.0477   28.3784    8.6380 O.2       11 UNK        -0.4999 
     69 C69        34.2841   26.0730    6.7984 C.3       12 UNK        -0.0954 
     70 S70        34.7881   24.8947    5.4901 S.3       12 UNK        -0.2268 
     71 C71        33.1598   24.2345    4.9955 C.3       12 UNK         0.0203 
     72 H72        27.9760   23.8672   -3.2222 H         1 UNK         0.0888 
     73 H73        26.7762   22.5839   -3.0551 H         1 UNK         0.0888 
     74 H74        26.3031   24.2691   -2.8246 H         1 UNK         0.0888 
     75 H75        29.3233   23.9987   -1.4454 H         1 UNK         0.3017 
     76 H76        30.1273   24.1139    0.6003 H         1 UNK         0.0873 
     77 H77        29.6568   22.2122    2.1900 H         1 UNK         0.0745 
     78 H78        28.3490   21.6790    1.1584 H         1 UNK         0.0745 
     79 H79        31.6928   20.4567    2.0631 H         1 UNK         0.0705 
     80 H80        32.7336   20.5799    0.6653 H         1 UNK         0.0705 
     81 H81        32.4129   21.9164    3.7705 H         1 UNK         0.1334 
     82 H82        33.5862   25.9469    2.9044 H         1 UNK         0.1417 
     83 H83        32.6255   23.2713   -0.2937 H         1 UNK         0.1562 
     84 H84        34.1016   25.6075   -0.5084 H         1 UNK         0.0748 
     85 H85        33.6500   26.7663    0.7222 H         1 UNK         0.0748 
     86 H86        31.8231   28.2079   -1.9880 H         1 UNK         0.0940 
     87 H87        32.7434   28.4297   -0.5377 H         1 UNK         0.0940 
     88 H88        30.6080   29.7577   -0.6762 H         1 UNK         0.0703 
     89 H89        29.3901   27.4400   -1.4197 H         1 UNK         0.3081 
     90 H90        26.2787   28.8547   -1.4650 H         1 UNK         0.0719 
     91 H91        27.9175   26.4001   -2.3186 H         1 UNK         0.0809 
     92 H92        26.4400   26.9837   -3.0707 H         1 UNK         0.0809 
     93 H93        27.8955   27.9525   -3.1568 H         1 UNK         0.0809 
     94 H94        26.7069   26.5672    0.3355 H         1 UNK         0.2990 
     95 H95        23.4305   26.2961    1.0616 H         1 UNK         0.0690 
     96 H96        23.0087   23.9921    0.1698 H         1 UNK         0.0788 
     97 H97        24.1731   24.2798   -1.1223 H         1 UNK         0.0788 
     98 H98        22.6971   25.2286   -1.0359 H         1 UNK         0.0788 
     99 H99        25.6261   24.3202    0.9046 H         1 UNK         0.2993 
    100 H100       27.0986   25.4261    3.9090 H         1 UNK         0.0949 
    101 H101       26.6378   23.1855    4.8618 H         1 UNK         0.0767 
    102 H102       25.1934   24.1802    4.9272 H         1 UNK         0.0767 
    103 H103       25.3353   22.9307    3.6983 H         1 UNK         0.0767 
    104 H104       27.4806   23.0036    2.4748 H         1 UNK         0.3013 
    105 H105       29.7543   27.1314    1.6013 H         1 UNK         0.3121 
    106 H106       31.2872   28.3288    3.7707 H         1 UNK         0.0774 
    107 H107       30.4257   26.5053    5.1117 H         1 UNK         0.0815 
    108 H108       29.1591   26.1561    3.9541 H         1 UNK         0.0815 
    109 H109       30.8324   25.8312    3.5358 H         1 UNK         0.0815 
    110 H110       28.1899   29.0035    2.4234 H         1 UNK         0.2987 
    111 H111       27.2240   30.3733    4.8827 H         1 UNK         0.0949 
    112 H112       25.9546   30.1264    2.1011 H         1 UNK         0.0806 
    113 H113       25.5385   29.1557    3.5109 H         1 UNK         0.0806 
    114 H114       25.2313   30.8845    3.5107 H         1 UNK         0.0806 
    115 H115       28.5311   30.9684    1.6206 H         1 UNK         0.3010 
    116 H116       28.3294   33.8192    1.7038 H         1 UNK         0.0829 
    117 H117       28.4235   32.5104   -0.4132 H         1 UNK         0.0813 
    118 H118       29.7068   33.7097   -0.3593 H         1 UNK         0.0813 
    119 H119       30.0783   32.0197   -0.0542 H         1 UNK         0.0813 
    120 H120       31.0814   31.5894    2.4130 H         1 UNK         0.3038 
    121 H121       32.4760   33.6571    3.9358 H         1 UNK         0.0769 
    122 H122       33.7352   32.4593    1.3975 H         1 UNK         0.0811 
    123 H123       34.5396   33.5378    2.5438 H         1 UNK         0.0811 
    124 H124       33.2101   34.1279    1.5757 H         1 UNK         0.0811 
    125 H125       34.8642   31.6667    3.2342 H         1 UNK         0.3204 
    126 H126       34.7794   30.1600    5.6225 H         1 UNK         0.0748 
    127 H127       36.8171   29.0523    4.6704 H         1 UNK         0.0771 
    128 H128       36.4957   29.7941    3.1104 H         1 UNK         0.0771 
    129 H129       36.8946   30.7982    4.5053 H         1 UNK         0.0771 
    130 H130       33.3075   26.9695    4.6671 H         1 UNK         0.2980 
    131 H131       35.3845   27.8627    6.3650 H         1 UNK         0.0545 
    132 H132       32.4069   29.4741    6.2043 H         1 UNK         0.3459 
    133 H133       32.2951   29.8715    7.8937 H         1 UNK         0.3459 
    134 H134       34.9446   25.9113    7.6522 H         1 UNK         0.0616 
    135 H135       33.2868   25.8040    7.1515 H         1 UNK         0.0616 
    136 H136       32.9634   23.3344    5.5799 H         1 UNK         0.0634 
    137 H137       32.3729   24.9417    5.2550 H         1 UNK         0.0634 
@<TRIPOS>BOND
     1    1    2 1    
     2    1   72 1    
     3    1   73 1    
     4    1   74 1    
     5    2    3 2    
     6    2    4 am   BACKBONE|DICT|INTERRES
     7    4    5 1    
     8    4   75 1    
     9    5    6 1    
    10    5   35 1    
    11    5   76 1    
    12    6    7 1    
    13    6   77 1    
    14    6   78 1    
    15    7    8 1    
    16    8    9 1    
    17    8   79 1    
    18    8   80 1    
    19    9   10 ar   
    20    9   14 ar   
    21   10   11 ar   
    22   10   81 1    
    23   11   12 ar   
    24   11   71 1    
    25   12   13 ar   
    26   12   82 1    
    27   13   14 ar   
    28   13   15 1    
    29   14   83 1    
    30   15   16 1    
    31   15   84 1    
    32   15   85 1    
    33   16   17 1    
    34   17   18 1    
    35   17   86 1    
    36   17   87 1    
    37   18   19 1    
    38   18   37 1    
    39   18   88 1    
    40   19   20 am   BACKBONE|DICT|INTERRES
    41   19   89 1    
    42   20   21 2    
    43   20   22 1    
    44   22   23 1    
    45   22   24 1    
    46   22   90 1    
    47   23   91 1    
    48   23   92 1    
    49   23   93 1    
    50   24   25 am   BACKBONE|DICT|INTERRES
    51   24   94 1    
    52   25   26 2    
    53   25   27 1    
    54   27   28 1    
    55   27   29 1    
    56   27   95 1    
    57   28   96 1    
    58   28   97 1    
    59   28   98 1    
    60   29   30 am   BACKBONE|DICT|INTERRES
    61   29   99 1    
    62   30   31 2    
    63   30   32 1    
    64   32   33 1    
    65   32   34 1    
    66   32  100 1    
    67   33  101 1    
    68   33  102 1    
    69   33  103 1    
    70   34   35 am   BACKBONE|DICT|INTERRES
    71   34  104 1    
    72   35   36 2    
    73   37   38 2    
    74   37   39 am   BACKBONE|DICT|INTERRES
    75   39   40 1    
    76   39  105 1    
    77   40   41 1    
    78   40   42 1    
    79   40  106 1    
    80   41  107 1    
    81   41  108 1    
    82   41  109 1    
    83   42   43 2    
    84   42   44 am   BACKBONE|DICT|INTERRES
    85   44   45 1    
    86   44  110 1    
    87   45   46 1    
    88   45   47 1    
    89   45  111 1    
    90   46  112 1    
    91   46  113 1    
    92   46  114 1    
    93   47   48 2    
    94   47   49 am   BACKBONE|DICT|INTERRES
    95   49   50 1    
    96   49  115 1    
    97   50   51 1    
    98   50   52 1    
    99   50  116 1    
   100   51  117 1    
   101   51  118 1    
   102   51  119 1    
   103   52   53 2    
   104   52   54 am   BACKBONE|DICT|INTERRES
   105   54   55 1    
   106   54  120 1    
   107   55   56 1    
   108   55   57 1    
   109   55  121 1    
   110   56  122 1    
   111   56  123 1    
   112   56  124 1    
   113   57   58 2    
   114   57   59 am   BACKBONE|DICT|INTERRES
   115   59   60 1    
   116   59  125 1    
   117   60   61 1    
   118   60   62 1    
   119   60  126 1    
   120   61  127 1    
   121   61  128 1    
   122   61  129 1    
   123   62   63 2    
   124   62   64 am   BACKBONE|DICT|INTERRES
   125   64   65 1    
   126   64  130 1    
   127   65   66 1    
   128   65   69 1    
   129   65  131 1    
   130   66   67 am   BACKBONE|DICT|INTERRES
   131   66   68 2    
   132   67  132 1    
   133   67  133 1    
   134   69   70 1    
   135   69  134 1    
   136   69  135 1    
   137   70   71 1    
   138   71  136 1    
   139   71  137 1    
@<TRIPOS>SUBSTRUCTURE
     1 UNK         1 GROUP             0       ****    0 ROOT    
