@<TRIPOS>MOLECULE
3R136
137   139    1
SMALL
USER_CHARGES


@<TRIPOS>ATOM
      1 CA         28.4914   20.6553    3.2766 C.3       0 UNK        -0.1979 
      2 C          28.5796   20.6580    1.7581 C.2       0 UNK         0.4864 
      3 O          28.0685   19.7419    1.1118 O.2       0 UNK        -0.5359 
      4 N          29.2108   21.6852    1.1751 N.am      1 UNK        -0.4318 
      5 CA         29.4676   21.8277   -0.2648 C.3       1 UNK         0.0824 
      6 C6         30.7578   22.6425   -0.5551 C.3       12 UNK        -0.0944 
      7 S7         32.2149   22.0053    0.3474 S.3       12 UNK        -0.2672 
      8 C8         33.1356   23.5317    0.7601 C.3       12 UNK         0.0333 
      9 C9         32.3226   24.5916    1.5033 C.ar      12 UNK        -0.0807 
     10 C10        32.4971   25.9410    1.1781 C.ar      12 UNK        -0.0894 
     11 C11        31.7598   26.9336    1.8296 C.ar      12 UNK        -0.0804 
     12 C12        30.8260   26.5678    2.8008 C.ar      12 UNK        -0.0824 
     13 C13        30.6232   25.2241    3.1239 C.ar      12 UNK        -0.0762 
     14 C14        31.4002   24.2441    2.4978 C.ar      12 UNK        -0.0782 
     15 C15        29.5462   24.8220    4.1213 C.3       12 UNK         0.0230 
     16 S16        28.0724   24.1969    3.2475 S.3       12 UNK        -0.2608 
     17 C17        26.8224   25.4954    3.5322 C.3       12 UNK        -0.0989 
     18 CA         27.1136   26.8189    2.7855 C.3       5 UNK         0.0716 
     19 N          27.2902   26.6424    1.3452 N.am      5 UNK        -0.4135 
     20 C          27.9040   27.5288    0.5474 C.2       4 UNK         0.5031 
     21 O          28.3991   28.5840    0.9457 O.2       4 UNK        -0.5229 
     22 CA         27.9937   27.1898   -0.9510 C.3       4 UNK         0.0329 
     23 CB         29.3400   26.5170   -1.2557 C.3       4 UNK        -0.2001 
     24 N          26.8966   26.3404   -1.4257 N.am      4 UNK        -0.4303 
     25 C          25.6169   26.7403   -1.4974 C.2       3 UNK         0.5044 
     26 O          25.2493   27.8809   -1.2126 O.2       3 UNK        -0.5152 
     27 CA         24.5565   25.7257   -1.9692 C.3       3 UNK         0.0319 
     28 CB         24.0023   26.1274   -3.3468 C.3       3 UNK        -0.2001 
     29 N          25.0082   24.3336   -2.0348 N.am      3 UNK        -0.4354 
     30 C          25.3546   23.5677   -0.9919 C.2       2 UNK         0.4964 
     31 O          25.3839   23.9714    0.1722 O.2       2 UNK        -0.5047 
     32 CA         25.7440   22.1058   -1.2967 C.3       2 UNK         0.0288 
     33 CB         25.6604   21.7199   -2.7926 C.3       2 UNK        -0.2113 
     34 N          27.0664   21.7661   -0.7646 N.am      2 UNK        -0.4145 
     35 C          28.2285   22.3945   -0.9965 C.2       1 UNK         0.5006 
     36 O          28.3357   23.3787   -1.7326 O.2       1 UNK        -0.5103 
     37 C          26.0307   27.8792    3.0574 C.2       5 UNK         0.5055 
     38 O          24.8436   27.6167    2.8536 O.2       5 UNK        -0.5220 
     39 N          26.4755   29.0505    3.5147 N.am      6 UNK        -0.4450 
     40 CA         25.6828   30.2175    3.8979 C.3       6 UNK         0.0367 
     41 CB         25.0361   30.8981    2.6749 C.3       6 UNK        -0.1929 
     42 C          26.6427   31.1503    4.6385 C.2       6 UNK         0.5070 
     43 O          26.4452   31.4337    5.8199 O.2       6 UNK        -0.5237 
     44 N          27.7404   31.4897    3.9505 N.am      7 UNK        -0.4739 
     45 CA         29.0375   31.7592    4.5688 C.3       7 UNK         0.0276 
     46 CB         29.8333   32.7020    3.6515 C.3       7 UNK        -0.1927 
     47 C          29.7701   30.4163    4.7687 C.2       7 UNK         0.5013 
     48 O          29.2899   29.3820    4.2935 O.2       7 UNK        -0.5193 
     49 N          30.9114   30.4434    5.4604 N.am      8 UNK        -0.4253 
     50 CA         31.7504   29.2775    5.7338 C.3       8 UNK         0.0242 
     51 CB         31.1668   28.4756    6.9151 C.3       8 UNK        -0.2000 
     52 C          33.1831   29.7467    6.0142 C.2       8 UNK         0.4948 
     53 O          33.4305   30.9571    6.0470 O.2       8 UNK        -0.5275 
     54 N          34.0963   28.7836    6.2079 N.am      9 UNK        -0.4246 
     55 CA         35.5287   28.9524    6.4847 C.3       9 UNK         0.0261 
     56 CB         35.7584   29.6012    7.8689 C.3       9 UNK        -0.1959 
     57 C          36.2478   29.6806    5.3358 C.2       9 UNK         0.5033 
     58 O          36.6754   29.0260    4.3843 O.2       9 UNK        -0.5390 
     59 N          36.3453   31.0130    5.4311 N.am      10 UNK        -0.4215 
     60 CA         36.8284   31.8909    4.3634 C.3       10 UNK         0.0240 
     61 CB         37.1666   33.2684    4.9568 C.3       10 UNK        -0.1982 
     62 C          35.8219   32.0345    3.2055 C.2       10 UNK         0.4970 
     63 O          36.2425   32.3456    2.0907 O.2       10 UNK        -0.4916 
     64 N          34.5284   31.8150    3.4885 N.am      11 UNK        -0.4279 
     65 CA         33.4030   31.8626    2.5380 C.3       11 UNK         0.1003 
     66 C          33.1076   33.2774    1.9502 C.2       11 UNK         0.5709 
     67 N          33.5691   34.3574    2.5699 N.am      11 UNK        -0.7358 
     68 O          32.4185   33.4073    0.9415 O.2       11 UNK        -0.4999 
     69 C69        33.4784   30.7519    1.4506 C.3       12 UNK        -0.0954 
     70 S70        33.4816   29.0717    2.1645 S.3       12 UNK        -0.2268 
     71 C71        31.9476   28.3966    1.4591 C.3       12 UNK         0.0203 
     72 H72        28.7129   19.6619    3.6656 H         1 UNK         0.0888 
     73 H73        29.1974   21.3548    3.7235 H         1 UNK         0.0888 
     74 H74        27.4865   20.9318    3.5946 H         1 UNK         0.0888 
     75 H75        29.5363   22.4514    1.7460 H         1 UNK         0.3017 
     76 H76        29.6296   20.8298   -0.6786 H         1 UNK         0.0873 
     77 H77        30.9874   22.6240   -1.6220 H         1 UNK         0.0745 
     78 H78        30.6041   23.6895   -0.2990 H         1 UNK         0.0745 
     79 H79        33.5322   23.9437   -0.1693 H         1 UNK         0.0705 
     80 H80        33.9985   23.2641    1.3709 H         1 UNK         0.0705 
     81 H81        33.2102   26.2254    0.4162 H         1 UNK         0.1334 
     82 H82        30.2465   27.3337    3.2910 H         1 UNK         0.1417 
     83 H83        31.2642   23.2055    2.7639 H         1 UNK         0.1562 
     84 H84        29.2823   25.6589    4.7698 H         1 UNK         0.0748 
     85 H85        29.9292   24.0381    4.7763 H         1 UNK         0.0748 
     86 H86        26.7447   25.6704    4.6071 H         1 UNK         0.0940 
     87 H87        25.8564   25.0913    3.2221 H         1 UNK         0.0940 
     88 H88        28.0518   27.2012    3.1850 H         1 UNK         0.0703 
     89 H89        26.8822   25.8105    0.9408 H         1 UNK         0.3081 
     90 H90        27.9510   28.1297   -1.5053 H         1 UNK         0.0719 
     91 H91        30.1705   27.1812   -1.0136 H         1 UNK         0.0809 
     92 H92        29.4300   26.2506   -2.3089 H         1 UNK         0.0809 
     93 H93        29.4704   25.6118   -0.6644 H         1 UNK         0.0809 
     94 H94        27.1288   25.3859   -1.6732 H         1 UNK         0.2990 
     95 H95        23.7377   25.7700   -1.2480 H         1 UNK         0.0690 
     96 H96        23.1836   25.4755   -3.6523 H         1 UNK         0.0788 
     97 H97        24.7724   26.0864   -4.1183 H         1 UNK         0.0788 
     98 H98        23.6114   27.1459   -3.3312 H         1 UNK         0.0788 
     99 H99        25.0445   23.9173   -2.9543 H         1 UNK         0.2993 
    100 H100       25.0264   21.4879   -0.7547 H         1 UNK         0.0949 
    101 H101       24.6542   21.8675   -3.1875 H         1 UNK         0.0767 
    102 H102       26.3530   22.2967   -3.4071 H         1 UNK         0.0767 
    103 H103       25.9006   20.6660   -2.9347 H         1 UNK         0.0767 
    104 H104       27.0998   20.9827   -0.1186 H         1 UNK         0.3013 
    105 H105       27.4774   29.1468    3.6825 H         1 UNK         0.3121 
    106 H106       24.9009   29.9022    4.5918 H         1 UNK         0.0774 
    107 H107       24.5283   31.8185    2.9654 H         1 UNK         0.0815 
    108 H108       25.7717   31.1546    1.9119 H         1 UNK         0.0815 
    109 H109       24.2906   30.2530    2.2102 H         1 UNK         0.0815 
    110 H110       27.7869   31.1853    2.9878 H         1 UNK         0.2987 
    111 H111       28.8996   32.2338    5.5431 H         1 UNK         0.0949 
    112 H112       30.7687   33.0089    4.1200 H         1 UNK         0.0806 
    113 H113       30.0763   32.2309    2.6978 H         1 UNK         0.0806 
    114 H114       29.2724   33.6123    3.4388 H         1 UNK         0.0806 
    115 H115       31.3013   31.3199    5.7857 H         1 UNK         0.3010 
    116 H116       31.7829   28.6457    4.8436 H         1 UNK         0.0829 
    117 H117       30.1505   28.1416    6.7051 H         1 UNK         0.0813 
    118 H118       31.7555   27.5819    7.1237 H         1 UNK         0.0813 
    119 H119       31.1396   29.0712    7.8284 H         1 UNK         0.0813 
    120 H120       33.7926   27.8240    6.1170 H         1 UNK         0.3038 
    121 H121       35.9554   27.9487    6.5247 H         1 UNK         0.0769 
    122 H122       35.2807   30.5764    7.9645 H         1 UNK         0.0811 
    123 H123       36.8229   29.7355    8.0660 H         1 UNK         0.0811 
    124 H124       35.3643   28.9678    8.6637 H         1 UNK         0.0811 
    125 H125       35.9224   31.4577    6.2341 H         1 UNK         0.3204 
    126 H126       37.7441   31.4608    3.9517 H         1 UNK         0.0748 
    127 H127       37.5514   33.9407    4.1884 H         1 UNK         0.0771 
    128 H128       36.2911   33.7455    5.3993 H         1 UNK         0.0771 
    129 H129       37.9327   33.1901    5.7286 H         1 UNK         0.0771 
    130 H130       34.2743   31.5763    4.4426 H         1 UNK         0.2980 
    131 H131       32.5247   31.6407    3.1427 H         1 UNK         0.0545 
    132 H132       34.1255   34.2709    3.4046 H         1 UNK         0.3459 
    133 H133       33.3637   35.2681    2.1907 H         1 UNK         0.3459 
    134 H134       34.3725   30.8693    0.8372 H         1 UNK         0.0616 
    135 H135       32.6347   30.8321    0.7633 H         1 UNK         0.0616 
    136 H136       31.9728   28.4934    0.3728 H         1 UNK         0.0634 
    137 H137       31.1014   28.9931    1.8056 H         1 UNK         0.0634 
@<TRIPOS>BOND
     1    1    2 1    
     2    1   72 1    
     3    1   73 1    
     4    1   74 1    
     5    2    3 2    
     6    2    4 am   BACKBONE|DICT|INTERRES
     7    4    5 1    
     8    4   75 1    
     9    5    6 1    
    10    5   35 1    
    11    5   76 1    
    12    6    7 1    
    13    6   77 1    
    14    6   78 1    
    15    7    8 1    
    16    8    9 1    
    17    8   79 1    
    18    8   80 1    
    19    9   10 ar   
    20    9   14 ar   
    21   10   11 ar   
    22   10   81 1    
    23   11   12 ar   
    24   11   71 1    
    25   12   13 ar   
    26   12   82 1    
    27   13   14 ar   
    28   13   15 1    
    29   14   83 1    
    30   15   16 1    
    31   15   84 1    
    32   15   85 1    
    33   16   17 1    
    34   17   18 1    
    35   17   86 1    
    36   17   87 1    
    37   18   19 1    
    38   18   37 1    
    39   18   88 1    
    40   19   20 am   BACKBONE|DICT|INTERRES
    41   19   89 1    
    42   20   21 2    
    43   20   22 1    
    44   22   23 1    
    45   22   24 1    
    46   22   90 1    
    47   23   91 1    
    48   23   92 1    
    49   23   93 1    
    50   24   25 am   BACKBONE|DICT|INTERRES
    51   24   94 1    
    52   25   26 2    
    53   25   27 1    
    54   27   28 1    
    55   27   29 1    
    56   27   95 1    
    57   28   96 1    
    58   28   97 1    
    59   28   98 1    
    60   29   30 am   BACKBONE|DICT|INTERRES
    61   29   99 1    
    62   30   31 2    
    63   30   32 1    
    64   32   33 1    
    65   32   34 1    
    66   32  100 1    
    67   33  101 1    
    68   33  102 1    
    69   33  103 1    
    70   34   35 am   BACKBONE|DICT|INTERRES
    71   34  104 1    
    72   35   36 2    
    73   37   38 2    
    74   37   39 am   BACKBONE|DICT|INTERRES
    75   39   40 1    
    76   39  105 1    
    77   40   41 1    
    78   40   42 1    
    79   40  106 1    
    80   41  107 1    
    81   41  108 1    
    82   41  109 1    
    83   42   43 2    
    84   42   44 am   BACKBONE|DICT|INTERRES
    85   44   45 1    
    86   44  110 1    
    87   45   46 1    
    88   45   47 1    
    89   45  111 1    
    90   46  112 1    
    91   46  113 1    
    92   46  114 1    
    93   47   48 2    
    94   47   49 am   BACKBONE|DICT|INTERRES
    95   49   50 1    
    96   49  115 1    
    97   50   51 1    
    98   50   52 1    
    99   50  116 1    
   100   51  117 1    
   101   51  118 1    
   102   51  119 1    
   103   52   53 2    
   104   52   54 am   BACKBONE|DICT|INTERRES
   105   54   55 1    
   106   54  120 1    
   107   55   56 1    
   108   55   57 1    
   109   55  121 1    
   110   56  122 1    
   111   56  123 1    
   112   56  124 1    
   113   57   58 2    
   114   57   59 am   BACKBONE|DICT|INTERRES
   115   59   60 1    
   116   59  125 1    
   117   60   61 1    
   118   60   62 1    
   119   60  126 1    
   120   61  127 1    
   121   61  128 1    
   122   61  129 1    
   123   62   63 2    
   124   62   64 am   BACKBONE|DICT|INTERRES
   125   64   65 1    
   126   64  130 1    
   127   65   66 1    
   128   65   69 1    
   129   65  131 1    
   130   66   67 am   BACKBONE|DICT|INTERRES
   131   66   68 2    
   132   67  132 1    
   133   67  133 1    
   134   69   70 1    
   135   69  134 1    
   136   69  135 1    
   137   70   71 1    
   138   71  136 1    
   139   71  137 1    
@<TRIPOS>SUBSTRUCTURE
     1 UNK         1 GROUP             0       ****    0 ROOT    
