@<TRIPOS>MOLECULE
3R136
137   139    1
SMALL
USER_CHARGES


@<TRIPOS>ATOM
      1 CA         34.1566   26.6433   -3.0154 C.3       0 UNK        -0.1979 
      2 C          32.9171   26.8317   -2.1543 C.2       0 UNK         0.4864 
      3 O          32.8812   27.7491   -1.3327 O.2       0 UNK        -0.5359 
      4 N          31.9075   25.9683   -2.3302 N.am      1 UNK        -0.4318 
      5 CA         30.6151   26.0499   -1.6448 C.3       1 UNK         0.0824 
      6 C6         29.9053   24.6680   -1.5798 C.3       12 UNK        -0.0944 
      7 S7         29.3788   24.2686    0.1182 S.3       12 UNK        -0.2672 
      8 C8         30.8164   23.3206    0.7054 C.3       12 UNK         0.0333 
      9 C9         30.7383   23.1117    2.2084 C.ar      12 UNK        -0.0807 
     10 C10        31.4202   23.9727    3.0733 C.ar      12 UNK        -0.0894 
     11 C11        31.3141   23.8186    4.4584 C.ar      12 UNK        -0.0804 
     12 C12        30.4941   22.8098    4.9756 C.ar      12 UNK        -0.0824 
     13 C13        29.8048   21.9424    4.1200 C.ar      12 UNK        -0.0762 
     14 C14        29.9591   22.0776    2.7360 C.ar      12 UNK        -0.0782 
     15 C15        28.8595   20.8885    4.6879 C.3       12 UNK         0.0230 
     16 S16        27.1111   21.2036    4.2492 S.3       12 UNK        -0.2608 
     17 C17        26.8602   22.9003    4.8764 C.3       12 UNK        -0.0989 
     18 CA         27.0697   23.9445    3.7467 C.3       5 UNK         0.0716 
     19 N          26.0306   23.9349    2.7166 N.am      5 UNK        -0.4135 
     20 C          24.7882   24.4230    2.8036 C.2       4 UNK         0.5031 
     21 O          24.2807   24.8696    3.8343 O.2       4 UNK        -0.5229 
     22 CA         23.9980   24.4489    1.4795 C.3       4 UNK         0.0329 
     23 CB         22.5019   24.1667    1.7073 C.3       4 UNK        -0.2001 
     24 N          24.1381   25.7164    0.7498 N.am      4 UNK        -0.4303 
     25 C          25.2857   26.2932    0.3623 C.2       3 UNK         0.5044 
     26 O          26.4038   25.8255    0.5885 O.2       3 UNK        -0.5152 
     27 CA         25.1686   27.6050   -0.4271 C.3       3 UNK         0.0319 
     28 CB         24.3702   28.6848    0.3316 C.3       3 UNK        -0.2001 
     29 N          26.5168   28.0829   -0.7287 N.am      3 UNK        -0.4354 
     30 C          26.8614   28.8765   -1.7487 C.2       2 UNK         0.4964 
     31 O          26.0523   29.3664   -2.5376 O.2       2 UNK        -0.5047 
     32 CA         28.3582   29.1669   -1.9372 C.3       2 UNK         0.0288 
     33 CB         28.7639   30.4256   -1.1525 C.3       2 UNK        -0.2113 
     34 N          29.1906   28.0461   -1.4971 N.am      2 UNK        -0.4145 
     35 C          29.7475   27.1390   -2.3074 C.2       1 UNK         0.5006 
     36 O          29.6124   27.1370   -3.5342 O.2       1 UNK        -0.5103 
     37 C          27.4083   25.3634    4.2421 C.2       5 UNK         0.5055 
     38 O          27.4727   25.6084    5.4487 O.2       5 UNK        -0.5220 
     39 N          27.6488   26.2637    3.2835 N.am      6 UNK        -0.4450 
     40 CA         28.2615   27.5646    3.5005 C.3       6 UNK         0.0367 
     41 CB         27.1943   28.6682    3.4437 C.3       6 UNK        -0.1929 
     42 C          29.3046   27.7435    2.3984 C.2       6 UNK         0.5070 
     43 O          28.9398   27.7671    1.2213 O.2       6 UNK        -0.5237 
     44 N          30.5784   27.8538    2.7855 N.am      7 UNK        -0.4739 
     45 CA         31.6788   28.1769    1.8786 C.3       7 UNK         0.0276 
     46 CB         33.0150   27.8357    2.5569 C.3       7 UNK        -0.1927 
     47 C          31.6456   29.6557    1.4611 C.2       7 UNK         0.5013 
     48 O          31.0467   30.4819    2.1564 O.2       7 UNK        -0.5193 
     49 N          32.3315   29.9759    0.3577 N.am      8 UNK        -0.4253 
     50 CA         32.6146   31.3468   -0.0727 C.3       8 UNK         0.0242 
     51 CB         33.3874   31.3140   -1.4012 C.3       8 UNK        -0.2000 
     52 C          33.3972   32.1076    1.0147 C.2       8 UNK         0.4948 
     53 O          34.4766   31.6593    1.4058 O.2       8 UNK        -0.5275 
     54 N          32.8048   33.2070    1.5032 N.am      9 UNK        -0.4246 
     55 CA         33.2293   34.0060    2.6627 C.3       9 UNK         0.0261 
     56 CB         34.6309   34.6204    2.4509 C.3       9 UNK        -0.1959 
     57 C          33.0873   33.2707    4.0164 C.2       9 UNK         0.5033 
     58 O          33.7828   33.6305    4.9685 O.2       9 UNK        -0.5390 
     59 N          32.1579   32.3023    4.0838 N.am      10 UNK        -0.4215 
     60 CA         31.7778   31.4481    5.2182 C.3       10 UNK         0.0240 
     61 CB         31.4207   32.2750    6.4716 C.3       10 UNK        -0.1982 
     62 C          32.8092   30.3504    5.5325 C.2       10 UNK         0.4970 
     63 O          33.9769   30.4487    5.1514 O.2       10 UNK        -0.4916 
     64 N          32.3410   29.3045    6.2271 N.am      11 UNK        -0.4279 
     65 CA         33.1520   28.1545    6.6662 C.3       11 UNK         0.1003 
     66 C          34.1946   28.4806    7.7778 C.2       11 UNK         0.5709 
     67 N          34.1095   29.6146    8.4638 N.am      11 UNK        -0.7358 
     68 O          35.1014   27.6871    8.0182 O.2       11 UNK        -0.4999 
     69 C69        32.2622   26.9559    7.0929 C.3       12 UNK        -0.0954 
     70 S70        31.2350   26.2857    5.7399 S.3       12 UNK        -0.2268 
     71 C71        32.1027   24.7231    5.3960 C.3       12 UNK         0.0203 
     72 H72        34.3347   27.5361   -3.6140 H         1 UNK         0.0888 
     73 H73        35.0287   26.4764   -2.3840 H         1 UNK         0.0888 
     74 H74        34.0590   25.7943   -3.6917 H         1 UNK         0.0888 
     75 H75        31.9784   25.2633   -3.0497 H         1 UNK         0.3017 
     76 H76        30.8219   26.3724   -0.6263 H         1 UNK         0.0873 
     77 H77        29.0275   24.6229   -2.2280 H         1 UNK         0.0745 
     78 H78        30.5581   23.8671   -1.9312 H         1 UNK         0.0745 
     79 H79        30.8553   22.3588    0.1917 H         1 UNK         0.0705 
     80 H80        31.7337   23.8517    0.4451 H         1 UNK         0.0705 
     81 H81        32.0303   24.7659    2.6666 H         1 UNK         0.1334 
     82 H82        30.3886   22.7055    6.0470 H         1 UNK         0.1417 
     83 H83        29.4192   21.4180    2.0698 H         1 UNK         0.1562 
     84 H84        28.9468   20.8340    5.7742 H         1 UNK         0.0748 
     85 H85        29.1481   19.9072    4.3088 H         1 UNK         0.0748 
     86 H86        27.5532   23.0603    5.7045 H         1 UNK         0.0940 
     87 H87        25.8590   22.9876    5.3011 H         1 UNK         0.0940 
     88 H88        27.9670   23.6674    3.2020 H         1 UNK         0.0703 
     89 H89        26.3532   23.6662    1.7971 H         1 UNK         0.3081 
     90 H90        24.3875   23.6565    0.8369 H         1 UNK         0.0719 
     91 H91        22.0239   24.9577    2.2868 H         1 UNK         0.0809 
     92 H92        21.9662   24.0716    0.7626 H         1 UNK         0.0809 
     93 H93        22.3604   23.2329    2.2533 H         1 UNK         0.0809 
     94 H94        23.2747   26.1892    0.5263 H         1 UNK         0.2990 
     95 H95        24.6608   27.3746   -1.3659 H         1 UNK         0.0690 
     96 H96        24.3595   29.6286   -0.2136 H         1 UNK         0.0788 
     97 H97        24.7823   28.8782    1.3207 H         1 UNK         0.0788 
     98 H98        23.3299   28.3876    0.4667 H         1 UNK         0.0788 
     99 H99        27.2409   27.6800   -0.1401 H         1 UNK         0.2993 
    100 H100       28.5244   29.3628   -2.9989 H         1 UNK         0.0949 
    101 H101       28.1563   31.2831   -1.4446 H         1 UNK         0.0767 
    102 H102       28.6450   30.2891   -0.0764 H         1 UNK         0.0767 
    103 H103       29.8048   30.6851   -1.3434 H         1 UNK         0.0767 
    104 H104       29.2782   27.9323   -0.4862 H         1 UNK         0.3013 
    105 H105       27.5388   25.9971    2.3073 H         1 UNK         0.3121 
    106 H106       28.7549   27.5997    4.4741 H         1 UNK         0.0774 
    107 H107       26.4147   28.5070    4.1882 H         1 UNK         0.0815 
    108 H108       27.6379   29.6456    3.6369 H         1 UNK         0.0815 
    109 H109       26.7215   28.7144    2.4638 H         1 UNK         0.0815 
    110 H110       30.8008   27.7994    3.7694 H         1 UNK         0.2987 
    111 H111       31.5848   27.5630    0.9867 H         1 UNK         0.0949 
    112 H112       33.8482   27.9770    1.8671 H         1 UNK         0.0806 
    113 H113       33.2028   28.4701    3.4205 H         1 UNK         0.0806 
    114 H114       33.0470   26.8005    2.8922 H         1 UNK         0.0806 
    115 H115       32.7478   29.2264   -0.1926 H         1 UNK         0.3010 
    116 H116       31.6592   31.8463   -0.2439 H         1 UNK         0.0829 
    117 H117       32.8150   30.8086   -2.1795 H         1 UNK         0.0813 
    118 H118       33.5995   32.3236   -1.7552 H         1 UNK         0.0813 
    119 H119       34.3414   30.7950   -1.2987 H         1 UNK         0.0813 
    120 H120       31.9167   33.4786    1.1026 H         1 UNK         0.3038 
    121 H121       32.5246   34.8373    2.7144 H         1 UNK         0.0769 
    122 H122       35.4163   33.8654    2.4919 H         1 UNK         0.0811 
    123 H123       34.8542   35.3577    3.2229 H         1 UNK         0.0811 
    124 H124       34.7019   35.1291    1.4896 H         1 UNK         0.0811 
    125 H125       31.7125   32.0240    3.2137 H         1 UNK         0.3204 
    126 H126       30.8694   30.9391    4.8913 H         1 UNK         0.0748 
    127 H127       30.7097   33.0667    6.2351 H         1 UNK         0.0771 
    128 H128       30.9610   31.6496    7.2376 H         1 UNK         0.0771 
    129 H129       32.2999   32.7372    6.9212 H         1 UNK         0.0771 
    130 H130       31.3744   29.2945    6.5165 H         1 UNK         0.2980 
    131 H131       33.7395   27.8305    5.8051 H         1 UNK         0.0545 
    132 H132       34.7941   29.8113    9.1767 H         1 UNK         0.3459 
    133 H133       33.3738   30.2749    8.2742 H         1 UNK         0.3459 
    134 H134       32.8746   26.1475    7.4966 H         1 UNK         0.0616 
    135 H135       31.5965   27.2531    7.9051 H         1 UNK         0.0616 
    136 H136       32.2908   24.1987    6.3341 H         1 UNK         0.0634 
    137 H137       33.0807   24.9451    4.9664 H         1 UNK         0.0634 
@<TRIPOS>BOND
     1    1    2 1    
     2    1   72 1    
     3    1   73 1    
     4    1   74 1    
     5    2    3 2    
     6    2    4 am   BACKBONE|DICT|INTERRES
     7    4    5 1    
     8    4   75 1    
     9    5    6 1    
    10    5   35 1    
    11    5   76 1    
    12    6    7 1    
    13    6   77 1    
    14    6   78 1    
    15    7    8 1    
    16    8    9 1    
    17    8   79 1    
    18    8   80 1    
    19    9   10 ar   
    20    9   14 ar   
    21   10   11 ar   
    22   10   81 1    
    23   11   12 ar   
    24   11   71 1    
    25   12   13 ar   
    26   12   82 1    
    27   13   14 ar   
    28   13   15 1    
    29   14   83 1    
    30   15   16 1    
    31   15   84 1    
    32   15   85 1    
    33   16   17 1    
    34   17   18 1    
    35   17   86 1    
    36   17   87 1    
    37   18   19 1    
    38   18   37 1    
    39   18   88 1    
    40   19   20 am   BACKBONE|DICT|INTERRES
    41   19   89 1    
    42   20   21 2    
    43   20   22 1    
    44   22   23 1    
    45   22   24 1    
    46   22   90 1    
    47   23   91 1    
    48   23   92 1    
    49   23   93 1    
    50   24   25 am   BACKBONE|DICT|INTERRES
    51   24   94 1    
    52   25   26 2    
    53   25   27 1    
    54   27   28 1    
    55   27   29 1    
    56   27   95 1    
    57   28   96 1    
    58   28   97 1    
    59   28   98 1    
    60   29   30 am   BACKBONE|DICT|INTERRES
    61   29   99 1    
    62   30   31 2    
    63   30   32 1    
    64   32   33 1    
    65   32   34 1    
    66   32  100 1    
    67   33  101 1    
    68   33  102 1    
    69   33  103 1    
    70   34   35 am   BACKBONE|DICT|INTERRES
    71   34  104 1    
    72   35   36 2    
    73   37   38 2    
    74   37   39 am   BACKBONE|DICT|INTERRES
    75   39   40 1    
    76   39  105 1    
    77   40   41 1    
    78   40   42 1    
    79   40  106 1    
    80   41  107 1    
    81   41  108 1    
    82   41  109 1    
    83   42   43 2    
    84   42   44 am   BACKBONE|DICT|INTERRES
    85   44   45 1    
    86   44  110 1    
    87   45   46 1    
    88   45   47 1    
    89   45  111 1    
    90   46  112 1    
    91   46  113 1    
    92   46  114 1    
    93   47   48 2    
    94   47   49 am   BACKBONE|DICT|INTERRES
    95   49   50 1    
    96   49  115 1    
    97   50   51 1    
    98   50   52 1    
    99   50  116 1    
   100   51  117 1    
   101   51  118 1    
   102   51  119 1    
   103   52   53 2    
   104   52   54 am   BACKBONE|DICT|INTERRES
   105   54   55 1    
   106   54  120 1    
   107   55   56 1    
   108   55   57 1    
   109   55  121 1    
   110   56  122 1    
   111   56  123 1    
   112   56  124 1    
   113   57   58 2    
   114   57   59 am   BACKBONE|DICT|INTERRES
   115   59   60 1    
   116   59  125 1    
   117   60   61 1    
   118   60   62 1    
   119   60  126 1    
   120   61  127 1    
   121   61  128 1    
   122   61  129 1    
   123   62   63 2    
   124   62   64 am   BACKBONE|DICT|INTERRES
   125   64   65 1    
   126   64  130 1    
   127   65   66 1    
   128   65   69 1    
   129   65  131 1    
   130   66   67 am   BACKBONE|DICT|INTERRES
   131   66   68 2    
   132   67  132 1    
   133   67  133 1    
   134   69   70 1    
   135   69  134 1    
   136   69  135 1    
   137   70   71 1    
   138   71  136 1    
   139   71  137 1    
@<TRIPOS>SUBSTRUCTURE
     1 UNK         1 GROUP             0       ****    0 ROOT    
