@<TRIPOS>MOLECULE
3R136
137   139    1
SMALL
USER_CHARGES


@<TRIPOS>ATOM
      1 CA         31.6816   25.1135   -5.7882 C.3       0 UNK        -0.1979 
      2 C          31.2523   24.8184   -4.3584 C.2       0 UNK         0.4864 
      3 O          31.2427   23.6546   -3.9553 O.2       0 UNK        -0.5359 
      4 N          30.9033   25.8648   -3.5960 N.am      1 UNK        -0.4318 
      5 CA         30.4160   25.8173   -2.2140 C.3       1 UNK         0.0824 
      6 C6         31.4693   25.2650   -1.2105 C.3       12 UNK        -0.0944 
      7 S7         31.0193   25.6203    0.5196 S.3       12 UNK        -0.2672 
      8 C8         31.3688   24.0290    1.3334 C.3       12 UNK         0.0333 
      9 C9         30.9254   24.0837    2.7856 C.ar      12 UNK        -0.0807 
     10 C10        31.7638   24.6354    3.7600 C.ar      12 UNK        -0.0894 
     11 C11        31.3064   24.8108    5.0695 C.ar      12 UNK        -0.0804 
     12 C12        30.0098   24.4130    5.4049 C.ar      12 UNK        -0.0824 
     13 C13        29.1660   23.8562    4.4397 C.ar      12 UNK        -0.0762 
     14 C14        29.6405   23.6613    3.1393 C.ar      12 UNK        -0.0782 
     15 C15        27.7131   23.5553    4.7795 C.3       12 UNK         0.0230 
     16 S16        26.5599   24.6914    3.9301 S.3       12 UNK        -0.2608 
     17 C17        27.2615   26.3413    4.2946 C.3       12 UNK        -0.0989 
     18 CA         28.1330   26.8813    3.1204 C.3       5 UNK         0.0716 
     19 N          27.3692   27.0380    1.8792 N.am      5 UNK        -0.4135 
     20 C          26.5371   28.0439    1.5709 C.2       4 UNK         0.5031 
     21 O          26.3214   29.0109    2.3034 O.2       4 UNK        -0.5229 
     22 CA         25.8103   27.9550    0.2169 C.3       4 UNK         0.0329 
     23 CB         26.6570   28.6052   -0.8875 C.3       4 UNK        -0.2001 
     24 N          25.4805   26.5786   -0.1637 N.am      4 UNK        -0.4303 
     25 C          24.5960   25.8088    0.4891 C.2       3 UNK         0.5044 
     26 O          23.8836   26.2242    1.4042 O.2       3 UNK        -0.5152 
     27 CA         24.4651   24.3310    0.0669 C.3       3 UNK         0.0319 
     28 CB         23.1151   24.0884   -0.6293 C.3       3 UNK        -0.2001 
     29 N          25.5362   23.8137   -0.7925 N.am      3 UNK        -0.4354 
     30 C          26.8353   23.7294   -0.4743 C.2       2 UNK         0.4964 
     31 O          27.3104   24.1603    0.5769 O.2       2 UNK        -0.5047 
     32 CA         27.7746   23.0675   -1.5023 C.3       2 UNK         0.0288 
     33 CB         27.1047   22.7107   -2.8505 C.3       2 UNK        -0.2113 
     34 N          28.9770   23.8757   -1.7231 N.am      2 UNK        -0.4145 
     35 C          29.0270   25.1464   -2.1501 C.2       1 UNK         0.5006 
     36 O          28.0359   25.8002   -2.4847 O.2       1 UNK        -0.5103 
     37 C          28.9532   28.1476    3.4531 C.2       5 UNK         0.5055 
     38 O          29.7745   28.5635    2.6322 O.2       5 UNK        -0.5220 
     39 N          28.6946   28.7640    4.6153 N.am      6 UNK        -0.4450 
     40 CA         29.3709   29.9638    5.1168 C.3       6 UNK         0.0367 
     41 CB         28.9385   30.2073    6.5720 C.3       6 UNK        -0.1929 
     42 C          29.1734   31.2344    4.2654 C.2       6 UNK         0.5070 
     43 O          29.8961   32.2086    4.4771 O.2       6 UNK        -0.5237 
     44 N          28.2204   31.2256    3.3207 N.am      7 UNK        -0.4739 
     45 CA         28.0629   32.2891    2.3247 C.3       7 UNK         0.0276 
     46 CB         26.6311   32.2647    1.7653 C.3       7 UNK        -0.1927 
     47 C          29.0913   32.1893    1.1813 C.2       7 UNK         0.5013 
     48 O          29.2757   33.1771    0.4687 O.2       7 UNK        -0.5193 
     49 N          29.7255   31.0196    1.0127 N.am      8 UNK        -0.4253 
     50 CA         30.7212   30.7493   -0.0235 C.3       8 UNK         0.0242 
     51 CB         30.2681   29.5462   -0.8672 C.3       8 UNK        -0.2000 
     52 C          32.1055   30.4935    0.5853 C.2       8 UNK         0.4948 
     53 O          33.0725   31.1302    0.1640 O.2       8 UNK        -0.5275 
     54 N          32.1875   29.5614    1.5419 N.am      9 UNK        -0.4246 
     55 CA         33.4330   29.1515    2.1879 C.3       9 UNK         0.0261 
     56 CB         33.3367   27.6621    2.5500 C.3       9 UNK        -0.1959 
     57 C          33.7127   29.9820    3.4456 C.2       9 UNK         0.5033 
     58 O          32.7818   30.4083    4.1313 O.2       9 UNK        -0.5390 
     59 N          35.0017   30.1395    3.7675 N.am      10 UNK        -0.4215 
     60 CA         35.4819   30.7433    5.0102 C.3       10 UNK         0.0240 
     61 CB         36.8691   31.3664    4.7631 C.3       10 UNK        -0.1982 
     62 C          35.4964   29.6849    6.1274 C.2       10 UNK         0.4970 
     63 O          36.5670   29.2133    6.5151 O.2       10 UNK        -0.4916 
     64 N          34.3006   29.2983    6.5882 N.am      11 UNK        -0.4279 
     65 CA         34.0853   28.2581    7.6097 C.3       11 UNK         0.1003 
     66 C          34.6088   28.6095    9.0340 C.2       11 UNK         0.5709 
     67 N          34.8826   29.8696    9.3518 N.am      11 UNK        -0.7358 
     68 O          34.7719   27.7185    9.8643 O.2       11 UNK        -0.4999 
     69 C69        32.6020   27.8087    7.6806 C.3       12 UNK        -0.0954 
     70 S70        31.9123   27.2887    6.0758 S.3       12 UNK        -0.2268 
     71 C71        32.1796   25.4904    6.1117 C.3       12 UNK         0.0203 
     72 H72        31.0236   24.6018   -6.4901 H         1 UNK         0.0888 
     73 H73        31.6530   26.1797   -6.0122 H         1 UNK         0.0888 
     74 H74        32.6988   24.7597   -5.9546 H         1 UNK         0.0888 
     75 H75        30.9121   26.7871   -4.0093 H         1 UNK         0.3017 
     76 H76        30.2428   26.8598   -1.9464 H         1 UNK         0.0873 
     77 H77        31.6452   24.1977   -1.3504 H         1 UNK         0.0745 
     78 H78        32.4317   25.7457   -1.3929 H         1 UNK         0.0745 
     79 H79        30.8492   23.2248    0.8104 H         1 UNK         0.0705 
     80 H80        32.4361   23.8112    1.2701 H         1 UNK         0.0705 
     81 H81        32.7532   24.9748    3.4868 H         1 UNK         0.1334 
     82 H82        29.6433   24.5826    6.4083 H         1 UNK         0.1417 
     83 H83        28.9757   23.2652    2.3834 H         1 UNK         0.1562 
     84 H84        27.5443   23.6196    5.8555 H         1 UNK         0.0748 
     85 H85        27.4781   22.5296    4.4920 H         1 UNK         0.0748 
     86 H86        27.8367   26.2722    5.2193 H         1 UNK         0.0940 
     87 H87        26.4307   27.0198    4.4972 H         1 UNK         0.0940 
     88 H88        28.8905   26.1388    2.8875 H         1 UNK         0.0703 
     89 H89        27.4488   26.2620    1.2328 H         1 UNK         0.3081 
     90 H90        24.8768   28.5147    0.3056 H         1 UNK         0.0719 
     91 H91        27.5975   28.0742   -1.0357 H         1 UNK         0.0809 
     92 H92        26.1267   28.6186   -1.8398 H         1 UNK         0.0809 
     93 H93        26.9008   29.6384   -0.6367 H         1 UNK         0.0809 
     94 H94        26.0248   26.1635   -0.9084 H         1 UNK         0.2990 
     95 H95        24.4831   23.7443    0.9878 H         1 UNK         0.0690 
     96 H96        22.9569   23.0292   -0.8338 H         1 UNK         0.0788 
     97 H97        23.0469   24.6289   -1.5743 H         1 UNK         0.0788 
     98 H98        22.2853   24.4206   -0.0037 H         1 UNK         0.0788 
     99 H99        25.2518   23.4583   -1.6939 H         1 UNK         0.2993 
    100 H100       28.1106   22.1370   -1.0425 H         1 UNK         0.0949 
    101 H101       26.6992   23.5883   -3.3557 H         1 UNK         0.0767 
    102 H102       27.8221   22.2478   -3.5287 H         1 UNK         0.0767 
    103 H103       26.2930   21.9947   -2.7153 H         1 UNK         0.0767 
    104 H104       29.8517   23.4340   -1.4813 H         1 UNK         0.3013 
    105 H105       27.9734   28.3834    5.2090 H         1 UNK         0.3121 
    106 H106       30.4412   29.7533    5.1148 H         1 UNK         0.0774 
    107 H107       27.8674   30.3981    6.6484 H         1 UNK         0.0815 
    108 H108       29.4547   31.0712    6.9931 H         1 UNK         0.0815 
    109 H109       29.1781   29.3525    7.2049 H         1 UNK         0.0815 
    110 H110       27.6459   30.3974    3.1978 H         1 UNK         0.2987 
    111 H111       28.2128   33.2536    2.8152 H         1 UNK         0.0949 
    112 H112       26.4404   31.3682    1.1760 H         1 UNK         0.0806 
    113 H113       25.8893   32.3080    2.5629 H         1 UNK         0.0806 
    114 H114       26.4560   33.1211    1.1128 H         1 UNK         0.0806 
    115 H115       29.5526   30.2694    1.6757 H         1 UNK         0.3010 
    116 H116       30.8186   31.6054   -0.6946 H         1 UNK         0.0829 
    117 H117       29.3645   29.7816   -1.4286 H         1 UNK         0.0813 
    118 H118       31.0338   29.2663   -1.5919 H         1 UNK         0.0813 
    119 H119       30.0637   28.6711   -0.2484 H         1 UNK         0.0813 
    120 H120       31.3356   29.1267    1.8936 H         1 UNK         0.3038 
    121 H121       34.2657   29.2800    1.4928 H         1 UNK         0.0769 
    122 H122       32.4323   27.4496    3.1212 H         1 UNK         0.0811 
    123 H123       34.1880   27.3369    3.1494 H         1 UNK         0.0811 
    124 H124       33.3195   27.0431    1.6539 H         1 UNK         0.0811 
    125 H125       35.7043   29.7220    3.1735 H         1 UNK         0.3204 
    126 H126       34.8064   31.5458    5.3155 H         1 UNK         0.0748 
    127 H127       37.2582   31.8241    5.6736 H         1 UNK         0.0771 
    128 H128       37.5976   30.6243    4.4336 H         1 UNK         0.0771 
    129 H129       36.8216   32.1478    4.0042 H         1 UNK         0.0771 
    130 H130       33.4697   29.6912    6.1634 H         1 UNK         0.2980 
    131 H131       34.6661   27.3906    7.2906 H         1 UNK         0.0545 
    132 H132       35.2241   30.0827   10.2757 H         1 UNK         0.3459 
    133 H133       34.7495   30.6073    8.6793 H         1 UNK         0.3459 
    134 H134       31.9821   28.6279    8.0493 H         1 UNK         0.0616 
    135 H135       32.4780   26.9945    8.3969 H         1 UNK         0.0616 
    136 H136       33.2338   25.2764    5.9298 H         1 UNK         0.0634 
    137 H137       31.9453   25.0975    7.1021 H         1 UNK         0.0634 
@<TRIPOS>BOND
     1    1    2 1    
     2    1   72 1    
     3    1   73 1    
     4    1   74 1    
     5    2    3 2    
     6    2    4 am   BACKBONE|DICT|INTERRES
     7    4    5 1    
     8    4   75 1    
     9    5    6 1    
    10    5   35 1    
    11    5   76 1    
    12    6    7 1    
    13    6   77 1    
    14    6   78 1    
    15    7    8 1    
    16    8    9 1    
    17    8   79 1    
    18    8   80 1    
    19    9   10 ar   
    20    9   14 ar   
    21   10   11 ar   
    22   10   81 1    
    23   11   12 ar   
    24   11   71 1    
    25   12   13 ar   
    26   12   82 1    
    27   13   14 ar   
    28   13   15 1    
    29   14   83 1    
    30   15   16 1    
    31   15   84 1    
    32   15   85 1    
    33   16   17 1    
    34   17   18 1    
    35   17   86 1    
    36   17   87 1    
    37   18   19 1    
    38   18   37 1    
    39   18   88 1    
    40   19   20 am   BACKBONE|DICT|INTERRES
    41   19   89 1    
    42   20   21 2    
    43   20   22 1    
    44   22   23 1    
    45   22   24 1    
    46   22   90 1    
    47   23   91 1    
    48   23   92 1    
    49   23   93 1    
    50   24   25 am   BACKBONE|DICT|INTERRES
    51   24   94 1    
    52   25   26 2    
    53   25   27 1    
    54   27   28 1    
    55   27   29 1    
    56   27   95 1    
    57   28   96 1    
    58   28   97 1    
    59   28   98 1    
    60   29   30 am   BACKBONE|DICT|INTERRES
    61   29   99 1    
    62   30   31 2    
    63   30   32 1    
    64   32   33 1    
    65   32   34 1    
    66   32  100 1    
    67   33  101 1    
    68   33  102 1    
    69   33  103 1    
    70   34   35 am   BACKBONE|DICT|INTERRES
    71   34  104 1    
    72   35   36 2    
    73   37   38 2    
    74   37   39 am   BACKBONE|DICT|INTERRES
    75   39   40 1    
    76   39  105 1    
    77   40   41 1    
    78   40   42 1    
    79   40  106 1    
    80   41  107 1    
    81   41  108 1    
    82   41  109 1    
    83   42   43 2    
    84   42   44 am   BACKBONE|DICT|INTERRES
    85   44   45 1    
    86   44  110 1    
    87   45   46 1    
    88   45   47 1    
    89   45  111 1    
    90   46  112 1    
    91   46  113 1    
    92   46  114 1    
    93   47   48 2    
    94   47   49 am   BACKBONE|DICT|INTERRES
    95   49   50 1    
    96   49  115 1    
    97   50   51 1    
    98   50   52 1    
    99   50  116 1    
   100   51  117 1    
   101   51  118 1    
   102   51  119 1    
   103   52   53 2    
   104   52   54 am   BACKBONE|DICT|INTERRES
   105   54   55 1    
   106   54  120 1    
   107   55   56 1    
   108   55   57 1    
   109   55  121 1    
   110   56  122 1    
   111   56  123 1    
   112   56  124 1    
   113   57   58 2    
   114   57   59 am   BACKBONE|DICT|INTERRES
   115   59   60 1    
   116   59  125 1    
   117   60   61 1    
   118   60   62 1    
   119   60  126 1    
   120   61  127 1    
   121   61  128 1    
   122   61  129 1    
   123   62   63 2    
   124   62   64 am   BACKBONE|DICT|INTERRES
   125   64   65 1    
   126   64  130 1    
   127   65   66 1    
   128   65   69 1    
   129   65  131 1    
   130   66   67 am   BACKBONE|DICT|INTERRES
   131   66   68 2    
   132   67  132 1    
   133   67  133 1    
   134   69   70 1    
   135   69  134 1    
   136   69  135 1    
   137   70   71 1    
   138   71  136 1    
   139   71  137 1    
@<TRIPOS>SUBSTRUCTURE
     1 UNK         1 GROUP             0       ****    0 ROOT    
