@<TRIPOS>MOLECULE
3R136
137   139    1
SMALL
USER_CHARGES


@<TRIPOS>ATOM
      1 CA         31.9289   25.0364   -1.3553 C.3       0 UNK        -0.1979 
      2 C          30.8596   24.3564   -0.5147 C.2       0 UNK         0.4864 
      3 O          29.9601   25.0268   -0.0054 O.2       0 UNK        -0.5359 
      4 N          30.9376   23.0269   -0.3729 N.am      1 UNK        -0.4318 
      5 CA         30.0705   22.2055    0.4840 C.3       1 UNK         0.0824 
      6 C6         30.7581   20.8791    0.9199 C.3       12 UNK        -0.0944 
      7 S7         32.4860   21.0753    1.4881 S.3       12 UNK        -0.2672 
      8 C8         32.2878   21.4766    3.2550 C.3       12 UNK         0.0333 
      9 C9         31.6169   22.8273    3.4660 C.ar      12 UNK        -0.0807 
     10 C10        32.2168   23.9962    2.9875 C.ar      12 UNK        -0.0894 
     11 C11        31.5887   25.2389    3.1424 C.ar      12 UNK        -0.0804 
     12 C12        30.3607   25.2936    3.8080 C.ar      12 UNK        -0.0824 
     13 C13        29.7321   24.1317    4.2755 C.ar      12 UNK        -0.0762 
     14 C14        30.3795   22.9042    4.1100 C.ar      12 UNK        -0.0782 
     15 C15        28.3573   24.1305    4.9510 C.3       12 UNK         0.0230 
     16 S16        27.4555   25.7201    4.9927 S.3       12 UNK        -0.2608 
     17 C17        27.0092   25.9971    3.2404 C.3       12 UNK        -0.0989 
     18 CA         27.4349   27.3974    2.7228 C.3       5 UNK         0.0716 
     19 N          27.6197   27.4086    1.2659 N.am      5 UNK        -0.4135 
     20 C          28.2171   28.3954    0.5761 C.2       4 UNK         0.5031 
     21 O          28.7820   29.3440    1.1189 O.2       4 UNK        -0.5229 
     22 CA         28.0907   28.4016   -0.9618 C.3       4 UNK         0.0329 
     23 CB         29.4385   28.1151   -1.6406 C.3       4 UNK        -0.2001 
     24 N          27.0649   27.4972   -1.4905 N.am      4 UNK        -0.4303 
     25 C          25.7492   27.6076   -1.2532 C.2       3 UNK         0.5044 
     26 O          25.2528   28.5247   -0.5984 O.2       3 UNK        -0.5152 
     27 CA         24.8422   26.4750   -1.7708 C.3       3 UNK         0.0319 
     28 CB         24.2512   26.8468   -3.1397 C.3       3 UNK        -0.2001 
     29 N          25.4931   25.1602   -1.8632 N.am      3 UNK        -0.4354 
     30 C          26.0934   24.5098   -0.8547 C.2       2 UNK         0.4964 
     31 O          26.2033   24.9766    0.2808 O.2       2 UNK        -0.5047 
     32 CA         26.6993   23.1303   -1.1574 C.3       2 UNK         0.0288 
     33 CB         26.8124   22.7976   -2.6625 C.3       2 UNK        -0.2113 
     34 N          28.0146   23.0714   -0.5297 N.am      2 UNK        -0.4145 
     35 C          28.6737   21.9760   -0.1422 C.2       1 UNK         0.5006 
     36 O          28.2296   20.8335   -0.2781 O.2       1 UNK        -0.5103 
     37 C          26.5156   28.5382    3.2345 C.2       5 UNK         0.5055 
     38 O          26.5291   28.8308    4.4303 O.2       5 UNK        -0.5220 
     39 N          25.7986   29.2366    2.3370 N.am      6 UNK        -0.4450 
     40 CA         25.1558   30.5259    2.6219 C.3       6 UNK         0.0367 
     41 CB         24.3284   30.9619    1.4028 C.3       6 UNK        -0.1929 
     42 C          26.1514   31.6394    3.0203 C.2       6 UNK         0.5070 
     43 O          25.7456   32.5941    3.6833 O.2       6 UNK        -0.5237 
     44 N          27.4277   31.4932    2.6376 N.am      7 UNK        -0.4739 
     45 CA         28.5451   32.3462    3.0338 C.3       7 UNK         0.0276 
     46 CB         28.9342   33.2544    1.8521 C.3       7 UNK        -0.1927 
     47 C          29.7026   31.4518    3.5091 C.2       7 UNK         0.5013 
     48 O          30.8251   31.5841    3.0174 O.2       7 UNK        -0.5193 
     49 N          29.4027   30.5451    4.4560 N.am      8 UNK        -0.4253 
     50 CA         30.2836   29.4824    4.9696 C.3       8 UNK         0.0242 
     51 CB         29.5908   28.7538    6.1315 C.3       8 UNK        -0.2000 
     52 C          31.6916   29.9209    5.4090 C.2       8 UNK         0.4948 
     53 O          32.6264   29.1258    5.3050 O.2       8 UNK        -0.5275 
     54 N          31.8308   31.1835    5.8401 N.am      9 UNK        -0.4246 
     55 CA         33.0984   31.8457    6.1635 C.3       9 UNK         0.0261 
     56 CB         32.8136   33.2874    6.6137 C.3       9 UNK        -0.1959 
     57 C          34.1318   31.8351    5.0194 C.2       9 UNK         0.5033 
     58 O          35.3293   31.8905    5.3030 O.2       9 UNK        -0.5390 
     59 N          33.6745   31.7093    3.7626 N.am      10 UNK        -0.4215 
     60 CA         34.5169   31.5143    2.5783 C.3       10 UNK         0.0240 
     61 CB         33.6332   31.5209    1.3203 C.3       10 UNK        -0.1982 
     62 C          35.3734   30.2327    2.6215 C.2       10 UNK         0.4970 
     63 O          36.4347   30.2110    1.9966 O.2       10 UNK        -0.4916 
     64 N          34.9205   29.2094    3.3596 N.am      11 UNK        -0.4279 
     65 CA         35.6717   27.9719    3.6233 C.3       11 UNK         0.1003 
     66 C          36.5602   28.0487    4.9003 C.2       11 UNK         0.5709 
     67 N          36.6333   29.1700    5.6102 N.am      11 UNK        -0.7358 
     68 O          37.2207   27.0724    5.2477 O.2       11 UNK        -0.4999 
     69 C69        34.7467   26.7248    3.6343 C.3       12 UNK        -0.0954 
     70 S70        33.8971   26.4898    2.0366 S.3       12 UNK        -0.2268 
     71 C71        32.1466   26.5356    2.5477 C.3       12 UNK         0.0203 
     72 H72        32.7430   24.3559   -1.6040 H         1 UNK         0.0888 
     73 H73        31.4980   25.4090   -2.2839 H         1 UNK         0.0888 
     74 H74        32.3505   25.8805   -0.8100 H         1 UNK         0.0888 
     75 H75        31.6871   22.5243   -0.8260 H         1 UNK         0.3017 
     76 H76        29.8786   22.7819    1.3890 H         1 UNK         0.0873 
     77 H77        30.1795   20.3921    1.7070 H         1 UNK         0.0745 
     78 H78        30.7820   20.1760    0.0851 H         1 UNK         0.0745 
     79 H79        33.2727   21.4956    3.7235 H         1 UNK         0.0705 
     80 H80        31.7303   20.6762    3.7441 H         1 UNK         0.0705 
     81 H81        33.1574   23.9167    2.4622 H         1 UNK         0.1334 
     82 H82        29.8910   26.2539    3.9374 H         1 UNK         0.1417 
     83 H83        29.9063   21.9998    4.4686 H         1 UNK         0.1562 
     84 H84        28.4858   23.7953    5.9810 H         1 UNK         0.0748 
     85 H85        27.7197   23.3898    4.4655 H         1 UNK         0.0748 
     86 H86        25.9376   25.8364    3.1079 H         1 UNK         0.0940 
     87 H87        27.4979   25.2226    2.6465 H         1 UNK         0.0940 
     88 H88        28.4172   27.6245    3.1360 H         1 UNK         0.0703 
     89 H89        27.1776   26.6482    0.7581 H         1 UNK         0.3081 
     90 H90        27.7959   29.4167   -1.2367 H         1 UNK         0.0719 
     91 H91        29.7535   27.0851   -1.4919 H         1 UNK         0.0809 
     92 H92        29.3873   28.2970   -2.7141 H         1 UNK         0.0809 
     93 H93        30.2247   28.7577   -1.2415 H         1 UNK         0.0809 
     94 H94        27.3880   26.7052   -2.0265 H         1 UNK         0.2990 
     95 H95        24.0192   26.3767   -1.0600 H         1 UNK         0.0690 
     96 H96        25.0235   26.9231   -3.9063 H         1 UNK         0.0788 
     97 H97        23.7396   27.8096   -3.0956 H         1 UNK         0.0788 
     98 H98        23.5194   26.1096   -3.4707 H         1 UNK         0.0788 
     99 H99        25.4609   24.7060   -2.7648 H         1 UNK         0.2993 
    100 H100       26.0503   22.3929   -0.6806 H         1 UNK         0.0949 
    101 H101       27.4297   23.5236   -3.1936 H         1 UNK         0.0767 
    102 H102       27.2601   21.8152   -2.8149 H         1 UNK         0.0767 
    103 H103       25.8329   22.7695   -3.1415 H         1 UNK         0.0767 
    104 H104       28.4581   23.9684   -0.3349 H         1 UNK         0.3013 
    105 H105       25.7875   28.9351    1.3678 H         1 UNK         0.3121 
    106 H106       24.4760   30.3798    3.4638 H         1 UNK         0.0774 
    107 H107       23.8050   31.8985    1.5999 H         1 UNK         0.0815 
    108 H108       24.9568   31.1173    0.5249 H         1 UNK         0.0815 
    109 H109       23.5745   30.2172    1.1469 H         1 UNK         0.0815 
    110 H110       27.6940   30.6709    2.1014 H         1 UNK         0.2987 
    111 H111       28.2651   32.9779    3.8796 H         1 UNK         0.0949 
    112 H112       29.2493   32.6708    0.9858 H         1 UNK         0.0806 
    113 H113       28.0998   33.8854    1.5463 H         1 UNK         0.0806 
    114 H114       29.7597   33.9149    2.1206 H         1 UNK         0.0806 
    115 H115       28.4434   30.5087    4.7747 H         1 UNK         0.3010 
    116 H116       30.4135   28.7742    4.1510 H         1 UNK         0.0829 
    117 H117       30.2087   27.9355    6.5049 H         1 UNK         0.0813 
    118 H118       29.3947   29.4244    6.9689 H         1 UNK         0.0813 
    119 H119       28.6424   28.3177    5.8249 H         1 UNK         0.0813 
    120 H120       31.0005   31.7558    5.8829 H         1 UNK         0.3038 
    121 H121       33.5414   31.3035    7.0013 H         1 UNK         0.0769 
    122 H122       33.7369   33.8003    6.8872 H         1 UNK         0.0811 
    123 H123       32.1625   33.3106    7.4877 H         1 UNK         0.0811 
    124 H124       32.3390   33.8705    5.8232 H         1 UNK         0.0811 
    125 H125       32.6685   31.6700    3.6087 H         1 UNK         0.3204 
    126 H126       35.2020   32.3625    2.5212 H         1 UNK         0.0748 
    127 H127       34.2362   31.4219    0.4167 H         1 UNK         0.0771 
    128 H128       32.9174   30.6974    1.3281 H         1 UNK         0.0771 
    129 H129       33.0702   32.4507    1.2349 H         1 UNK         0.0771 
    130 H130       34.0559   29.3101    3.8812 H         1 UNK         0.2980 
    131 H131       36.3798   27.8208    2.8066 H         1 UNK         0.0545 
    132 H132       36.1252   30.0033    5.3387 H         1 UNK         0.3459 
    133 H133       37.2233   29.1911    6.4264 H         1 UNK         0.3459 
    134 H134       35.3223   25.8177    3.8260 H         1 UNK         0.0616 
    135 H135       34.0169   26.7972    4.4426 H         1 UNK         0.0616 
    136 H136       31.5473   26.7869    1.6714 H         1 UNK         0.0634 
    137 H137       32.0148   27.3558    3.2525 H         1 UNK         0.0634 
@<TRIPOS>BOND
     1    1    2 1    
     2    1   72 1    
     3    1   73 1    
     4    1   74 1    
     5    2    3 2    
     6    2    4 am   BACKBONE|DICT|INTERRES
     7    4    5 1    
     8    4   75 1    
     9    5    6 1    
    10    5   35 1    
    11    5   76 1    
    12    6    7 1    
    13    6   77 1    
    14    6   78 1    
    15    7    8 1    
    16    8    9 1    
    17    8   79 1    
    18    8   80 1    
    19    9   10 ar   
    20    9   14 ar   
    21   10   11 ar   
    22   10   81 1    
    23   11   12 ar   
    24   11   71 1    
    25   12   13 ar   
    26   12   82 1    
    27   13   14 ar   
    28   13   15 1    
    29   14   83 1    
    30   15   16 1    
    31   15   84 1    
    32   15   85 1    
    33   16   17 1    
    34   17   18 1    
    35   17   86 1    
    36   17   87 1    
    37   18   19 1    
    38   18   37 1    
    39   18   88 1    
    40   19   20 am   BACKBONE|DICT|INTERRES
    41   19   89 1    
    42   20   21 2    
    43   20   22 1    
    44   22   23 1    
    45   22   24 1    
    46   22   90 1    
    47   23   91 1    
    48   23   92 1    
    49   23   93 1    
    50   24   25 am   BACKBONE|DICT|INTERRES
    51   24   94 1    
    52   25   26 2    
    53   25   27 1    
    54   27   28 1    
    55   27   29 1    
    56   27   95 1    
    57   28   96 1    
    58   28   97 1    
    59   28   98 1    
    60   29   30 am   BACKBONE|DICT|INTERRES
    61   29   99 1    
    62   30   31 2    
    63   30   32 1    
    64   32   33 1    
    65   32   34 1    
    66   32  100 1    
    67   33  101 1    
    68   33  102 1    
    69   33  103 1    
    70   34   35 am   BACKBONE|DICT|INTERRES
    71   34  104 1    
    72   35   36 2    
    73   37   38 2    
    74   37   39 am   BACKBONE|DICT|INTERRES
    75   39   40 1    
    76   39  105 1    
    77   40   41 1    
    78   40   42 1    
    79   40  106 1    
    80   41  107 1    
    81   41  108 1    
    82   41  109 1    
    83   42   43 2    
    84   42   44 am   BACKBONE|DICT|INTERRES
    85   44   45 1    
    86   44  110 1    
    87   45   46 1    
    88   45   47 1    
    89   45  111 1    
    90   46  112 1    
    91   46  113 1    
    92   46  114 1    
    93   47   48 2    
    94   47   49 am   BACKBONE|DICT|INTERRES
    95   49   50 1    
    96   49  115 1    
    97   50   51 1    
    98   50   52 1    
    99   50  116 1    
   100   51  117 1    
   101   51  118 1    
   102   51  119 1    
   103   52   53 2    
   104   52   54 am   BACKBONE|DICT|INTERRES
   105   54   55 1    
   106   54  120 1    
   107   55   56 1    
   108   55   57 1    
   109   55  121 1    
   110   56  122 1    
   111   56  123 1    
   112   56  124 1    
   113   57   58 2    
   114   57   59 am   BACKBONE|DICT|INTERRES
   115   59   60 1    
   116   59  125 1    
   117   60   61 1    
   118   60   62 1    
   119   60  126 1    
   120   61  127 1    
   121   61  128 1    
   122   61  129 1    
   123   62   63 2    
   124   62   64 am   BACKBONE|DICT|INTERRES
   125   64   65 1    
   126   64  130 1    
   127   65   66 1    
   128   65   69 1    
   129   65  131 1    
   130   66   67 am   BACKBONE|DICT|INTERRES
   131   66   68 2    
   132   67  132 1    
   133   67  133 1    
   134   69   70 1    
   135   69  134 1    
   136   69  135 1    
   137   70   71 1    
   138   71  136 1    
   139   71  137 1    
@<TRIPOS>SUBSTRUCTURE
     1 UNK         1 GROUP             0       ****    0 ROOT    
