@<TRIPOS>MOLECULE
3R136
137   139    1
SMALL
USER_CHARGES


@<TRIPOS>ATOM
      1 CA         28.0979   24.7121    3.2536 C.3       0 UNK        -0.1979 
      2 C          28.2185   23.8826    1.9851 C.2       0 UNK         0.4864 
      3 O          28.0463   24.4297    0.8953 O.2       0 UNK        -0.5359 
      4 N          28.4794   22.5730    2.1369 N.am      1 UNK        -0.4318 
      5 CA         28.7393   21.5656    1.0922 C.3       1 UNK         0.0824 
      6 C6         30.2253   21.5509    0.6399 C.3       12 UNK        -0.0944 
      7 S7         31.3164   20.9364    1.9701 S.3       12 UNK        -0.2672 
      8 C8         32.7047   22.1147    1.9327 C.3       12 UNK         0.0333 
      9 C9         32.3029   23.4902    2.4421 C.ar      12 UNK        -0.0807 
     10 C10        31.9669   23.6722    3.7867 C.ar      12 UNK        -0.0894 
     11 C11        31.5703   24.9268    4.2587 C.ar      12 UNK        -0.0804 
     12 C12        31.5153   26.0056    3.3681 C.ar      12 UNK        -0.0824 
     13 C13        31.8737   25.8412    2.0268 C.ar      12 UNK        -0.0762 
     14 C14        32.2690   24.5812    1.5706 C.ar      12 UNK        -0.0782 
     15 C15        31.8189   27.0159    1.0633 C.3       12 UNK         0.0230 
     16 S16        30.4820   26.7779   -0.1455 S.3       12 UNK        -0.2608 
     17 C17        29.9863   28.4929   -0.5301 C.3       12 UNK        -0.0989 
     18 CA         28.8249   29.0227    0.3553 C.3       5 UNK         0.0716 
     19 N          27.7601   28.0269    0.5068 N.am      5 UNK        -0.4135 
     20 C          26.4989   28.2600    0.8893 C.2       4 UNK         0.5031 
     21 O          26.0765   29.3723    1.2089 O.2       4 UNK        -0.5229 
     22 CA         25.5762   27.0264    0.9375 C.3       4 UNK         0.0329 
     23 CB         24.0755   27.3866    0.9570 C.3       4 UNK        -0.2001 
     24 N          25.8876   26.0573   -0.1223 N.am      4 UNK        -0.4303 
     25 C          25.7584   26.2283   -1.4479 C.2       3 UNK         0.5044 
     26 O          25.2893   27.2373   -1.9755 O.2       3 UNK        -0.5152 
     27 CA         26.2579   25.0834   -2.3468 C.3       3 UNK         0.0319 
     28 CB         27.6983   25.3599   -2.8073 C.3       3 UNK        -0.2001 
     29 N          26.2132   23.7723   -1.6971 N.am      3 UNK        -0.4354 
     30 C          25.1033   23.0882   -1.3934 C.2       2 UNK         0.4964 
     31 O          23.9702   23.4781   -1.6773 O.2       2 UNK        -0.5047 
     32 CA         25.2592   21.7556   -0.6314 C.3       2 UNK         0.0288 
     33 CB         25.1769   20.5554   -1.5960 C.3       2 UNK        -0.2113 
     34 N          26.4395   21.6605    0.2458 N.am      2 UNK        -0.4145 
     35 C          27.7402   21.6200   -0.0871 C.2       1 UNK         0.5006 
     36 O          28.1499   21.6672   -1.2488 O.2       1 UNK        -0.5103 
     37 C          29.3485   29.5920    1.6904 C.2       5 UNK         0.5055 
     38 O          30.0789   30.5820    1.6526 O.2       5 UNK        -0.5220 
     39 N          28.9760   28.9864    2.8300 N.am      6 UNK        -0.4450 
     40 CA         29.4208   29.3206    4.1914 C.3       6 UNK         0.0367 
     41 CB         28.7045   28.4005    5.1928 C.3       6 UNK        -0.1929 
     42 C          29.2536   30.7955    4.6046 C.2       6 UNK         0.5070 
     43 O          30.0143   31.2776    5.4436 O.2       6 UNK        -0.5237 
     44 N          28.2740   31.4880    4.0087 N.am      7 UNK        -0.4739 
     45 CA         28.0326   32.9191    4.2036 C.3       7 UNK         0.0276 
     46 CB         26.6044   33.2475    3.7384 C.3       7 UNK        -0.1927 
     47 C          29.0512   33.8250    3.4830 C.2       7 UNK         0.5013 
     48 O          29.1805   34.9883    3.8672 O.2       7 UNK        -0.5193 
     49 N          29.7295   33.3025    2.4517 N.am      8 UNK        -0.4253 
     50 CA         30.6877   34.0322    1.6188 C.3       8 UNK         0.0242 
     51 CB         30.3095   33.8552    0.1380 C.3       8 UNK        -0.2000 
     52 C          32.1256   33.5560    1.8663 C.2       8 UNK         0.4948 
     53 O          33.0162   34.3920    2.0247 O.2       8 UNK        -0.5275 
     54 N          32.3286   32.2341    1.8966 N.am      9 UNK        -0.4246 
     55 CA         33.6050   31.5765    2.1523 C.3       9 UNK         0.0261 
     56 CB         33.9724   30.7009    0.9410 C.3       9 UNK        -0.1959 
     57 C          33.4237   30.7322    3.4135 C.2       9 UNK         0.5033 
     58 O          32.7225   29.7212    3.3607 O.2       9 UNK        -0.5390 
     59 N          34.0282   31.1681    4.5258 N.am      10 UNK        -0.4215 
     60 CA         33.8609   30.6173    5.8773 C.3       10 UNK         0.0240 
     61 CB         34.3599   31.6585    6.8979 C.3       10 UNK        -0.1982 
     62 C          34.4911   29.2223    6.0954 C.2       10 UNK         0.4970 
     63 O          35.2359   29.0269    7.0584 O.2       10 UNK        -0.4916 
     64 N          34.1468   28.2768    5.2164 N.am      11 UNK        -0.4279 
     65 CA         34.4636   26.8427    5.2739 C.3       11 UNK         0.1003 
     66 C          35.9898   26.5361    5.1895 C.2       11 UNK         0.5709 
     67 N          36.4398   25.3747    5.6479 N.am      11 UNK        -0.7358 
     68 O          36.7729   27.3201    4.6550 O.2       11 UNK        -0.4999 
     69 C69        33.7241   26.1175    6.4418 C.3       12 UNK        -0.0954 
     70 S70        31.9430   26.5246    6.5358 S.3       12 UNK        -0.2268 
     71 C71        31.1702   25.0901    5.7218 C.3       12 UNK         0.0203 
     72 H72        28.6629   25.6366    3.1451 H         1 UNK         0.0888 
     73 H73        27.0555   24.9656    3.4421 H         1 UNK         0.0888 
     74 H74        28.4842   24.1801    4.1224 H         1 UNK         0.0888 
     75 H75        28.5843   22.2204    3.0777 H         1 UNK         0.3017 
     76 H76        28.5403   20.6000    1.5604 H         1 UNK         0.0873 
     77 H77        30.5339   22.5455    0.3136 H         1 UNK         0.0745 
     78 H78        30.3735   20.8875   -0.2142 H         1 UNK         0.0745 
     79 H79        33.5112   21.7273    2.5569 H         1 UNK         0.0705 
     80 H80        33.1024   22.1696    0.9180 H         1 UNK         0.0705 
     81 H81        31.9975   22.8263    4.4599 H         1 UNK         0.1334 
     82 H82        31.2035   26.9767    3.7233 H         1 UNK         0.1417 
     83 H83        32.5295   24.4505    0.5290 H         1 UNK         0.1562 
     84 H84        32.7704   27.1124    0.5390 H         1 UNK         0.0748 
     85 H85        31.6748   27.9471    1.6108 H         1 UNK         0.0748 
     86 H86        29.6609   28.4982   -1.5715 H         1 UNK         0.0940 
     87 H87        30.8577   29.1511   -0.5027 H         1 UNK         0.0940 
     88 H88        28.3875   29.8763   -0.1672 H         1 UNK         0.0703 
     89 H89        28.0291   27.0764    0.2851 H         1 UNK         0.3081 
     90 H90        25.8000   26.5223    1.8782 H         1 UNK         0.0719 
     91 H91        23.4532   26.4921    0.9839 H         1 UNK         0.0809 
     92 H92        23.8290   27.9794    1.8387 H         1 UNK         0.0809 
     93 H93        23.7851   27.9720    0.0843 H         1 UNK         0.0809 
     94 H94        26.3876   25.2257    0.1821 H         1 UNK         0.2990 
     95 H95        25.6138   25.0493   -3.2279 H         1 UNK         0.0690 
     96 H96        28.3950   25.3590   -1.9676 H         1 UNK         0.0788 
     97 H97        27.7757   26.3323   -3.2957 H         1 UNK         0.0788 
     98 H98        28.0366   24.6098   -3.5223 H         1 UNK         0.0788 
     99 H99        27.1028   23.3486   -1.4540 H         1 UNK         0.2993 
    100 H100       24.3983   21.6929    0.0366 H         1 UNK         0.0949 
    101 H101       25.9876   20.5601   -2.3252 H         1 UNK         0.0767 
    102 H102       25.2152   19.6091   -1.0565 H         1 UNK         0.0767 
    103 H103       24.2408   20.5711   -2.1559 H         1 UNK         0.0767 
    104 H104       26.2287   21.6653    1.2345 H         1 UNK         0.3013 
    105 H105       28.3578   28.1947    2.7467 H         1 UNK         0.3121 
    106 H106       30.4855   29.1015    4.2475 H         1 UNK         0.0774 
    107 H107       27.6230   28.5382    5.1661 H         1 UNK         0.0815 
    108 H108       29.0348   28.6038    6.2127 H         1 UNK         0.0815 
    109 H109       28.9177   27.3507    4.9944 H         1 UNK         0.0815 
    110 H110       27.6905   31.0105    3.3359 H         1 UNK         0.2987 
    111 H111       28.1029   33.1386    5.2715 H         1 UNK         0.0949 
    112 H112       26.4668   33.0371    2.6769 H         1 UNK         0.0806 
    113 H113       25.8634   32.6725    4.2941 H         1 UNK         0.0806 
    114 H114       26.3755   34.3029    3.8939 H         1 UNK         0.0806 
    115 H115       29.6135   32.3148    2.2420 H         1 UNK         0.3010 
    116 H116       30.6524   35.1000    1.8455 H         1 UNK         0.0829 
    117 H117       29.3168   34.2569   -0.0656 H         1 UNK         0.0813 
    118 H118       31.0112   34.3821   -0.5100 H         1 UNK         0.0813 
    119 H119       30.3125   32.8061   -0.1609 H         1 UNK         0.0813 
    120 H120       31.5294   31.6060    1.8078 H         1 UNK         0.3038 
    121 H121       34.4040   32.3035    2.3123 H         1 UNK         0.0769 
    122 H122       33.1959   29.9674    0.7192 H         1 UNK         0.0811 
    123 H123       34.8983   30.1535    1.1214 H         1 UNK         0.0811 
    124 H124       34.1206   31.3076    0.0476 H         1 UNK         0.0811 
    125 H125       34.6058   31.9938    4.4582 H         1 UNK         0.3204 
    126 H126       32.7885   30.4910    6.0439 H         1 UNK         0.0748 
    127 H127       35.4297   31.8443    6.7941 H         1 UNK         0.0771 
    128 H128       33.8392   32.6094    6.7824 H         1 UNK         0.0771 
    129 H129       34.1839   31.3220    7.9207 H         1 UNK         0.0771 
    130 H130       33.5525   28.5710    4.4436 H         1 UNK         0.2980 
    131 H131       34.0695   26.4392    4.3424 H         1 UNK         0.0545 
    132 H132       37.4236   25.1684    5.5729 H         1 UNK         0.3459 
    133 H133       35.8177   24.7043    6.0701 H         1 UNK         0.3459 
    134 H134       33.8253   25.0353    6.3508 H         1 UNK         0.0616 
    135 H135       34.1760   26.3877    7.3975 H         1 UNK         0.0616 
    136 H136       30.0874   25.2036    5.7776 H         1 UNK         0.0634 
    137 H137       31.4152   24.1945    6.2947 H         1 UNK         0.0634 
@<TRIPOS>BOND
     1    1    2 1    
     2    1   72 1    
     3    1   73 1    
     4    1   74 1    
     5    2    3 2    
     6    2    4 am   BACKBONE|DICT|INTERRES
     7    4    5 1    
     8    4   75 1    
     9    5    6 1    
    10    5   35 1    
    11    5   76 1    
    12    6    7 1    
    13    6   77 1    
    14    6   78 1    
    15    7    8 1    
    16    8    9 1    
    17    8   79 1    
    18    8   80 1    
    19    9   10 ar   
    20    9   14 ar   
    21   10   11 ar   
    22   10   81 1    
    23   11   12 ar   
    24   11   71 1    
    25   12   13 ar   
    26   12   82 1    
    27   13   14 ar   
    28   13   15 1    
    29   14   83 1    
    30   15   16 1    
    31   15   84 1    
    32   15   85 1    
    33   16   17 1    
    34   17   18 1    
    35   17   86 1    
    36   17   87 1    
    37   18   19 1    
    38   18   37 1    
    39   18   88 1    
    40   19   20 am   BACKBONE|DICT|INTERRES
    41   19   89 1    
    42   20   21 2    
    43   20   22 1    
    44   22   23 1    
    45   22   24 1    
    46   22   90 1    
    47   23   91 1    
    48   23   92 1    
    49   23   93 1    
    50   24   25 am   BACKBONE|DICT|INTERRES
    51   24   94 1    
    52   25   26 2    
    53   25   27 1    
    54   27   28 1    
    55   27   29 1    
    56   27   95 1    
    57   28   96 1    
    58   28   97 1    
    59   28   98 1    
    60   29   30 am   BACKBONE|DICT|INTERRES
    61   29   99 1    
    62   30   31 2    
    63   30   32 1    
    64   32   33 1    
    65   32   34 1    
    66   32  100 1    
    67   33  101 1    
    68   33  102 1    
    69   33  103 1    
    70   34   35 am   BACKBONE|DICT|INTERRES
    71   34  104 1    
    72   35   36 2    
    73   37   38 2    
    74   37   39 am   BACKBONE|DICT|INTERRES
    75   39   40 1    
    76   39  105 1    
    77   40   41 1    
    78   40   42 1    
    79   40  106 1    
    80   41  107 1    
    81   41  108 1    
    82   41  109 1    
    83   42   43 2    
    84   42   44 am   BACKBONE|DICT|INTERRES
    85   44   45 1    
    86   44  110 1    
    87   45   46 1    
    88   45   47 1    
    89   45  111 1    
    90   46  112 1    
    91   46  113 1    
    92   46  114 1    
    93   47   48 2    
    94   47   49 am   BACKBONE|DICT|INTERRES
    95   49   50 1    
    96   49  115 1    
    97   50   51 1    
    98   50   52 1    
    99   50  116 1    
   100   51  117 1    
   101   51  118 1    
   102   51  119 1    
   103   52   53 2    
   104   52   54 am   BACKBONE|DICT|INTERRES
   105   54   55 1    
   106   54  120 1    
   107   55   56 1    
   108   55   57 1    
   109   55  121 1    
   110   56  122 1    
   111   56  123 1    
   112   56  124 1    
   113   57   58 2    
   114   57   59 am   BACKBONE|DICT|INTERRES
   115   59   60 1    
   116   59  125 1    
   117   60   61 1    
   118   60   62 1    
   119   60  126 1    
   120   61  127 1    
   121   61  128 1    
   122   61  129 1    
   123   62   63 2    
   124   62   64 am   BACKBONE|DICT|INTERRES
   125   64   65 1    
   126   64  130 1    
   127   65   66 1    
   128   65   69 1    
   129   65  131 1    
   130   66   67 am   BACKBONE|DICT|INTERRES
   131   66   68 2    
   132   67  132 1    
   133   67  133 1    
   134   69   70 1    
   135   69  134 1    
   136   69  135 1    
   137   70   71 1    
   138   71  136 1    
   139   71  137 1    
@<TRIPOS>SUBSTRUCTURE
     1 UNK         1 GROUP             0       ****    0 ROOT    
