@<TRIPOS>MOLECULE
3R136
137   139    1
SMALL
USER_CHARGES


@<TRIPOS>ATOM
      1 CA         29.0652   25.0150    5.1042 C.3       0 UNK        -0.1979 
      2 C          28.7596   24.9355    3.6163 C.2       0 UNK         0.4864 
      3 O          28.9478   25.9227    2.9102 O.2       0 UNK        -0.5359 
      4 N          28.2780   23.7737    3.1475 N.am      1 UNK        -0.4318 
      5 CA         27.9773   23.4478    1.7419 C.3       1 UNK         0.0824 
      6 C6         29.2417   23.3461    0.8444 C.3       12 UNK        -0.0944 
      7 S7         30.5152   22.2278    1.5272 S.3       12 UNK        -0.2672 
      8 C8         32.0560   22.9664    0.8909 C.3       12 UNK         0.0333 
      9 C9         32.2834   24.3812    1.4072 C.ar      12 UNK        -0.0807 
     10 C10        32.6748   24.5970    2.7310 C.ar      12 UNK        -0.0894 
     11 C11        32.8917   25.8949    3.2060 C.ar      12 UNK        -0.0804 
     12 C12        32.6845   26.9843    2.3518 C.ar      12 UNK        -0.0824 
     13 C13        32.2848   26.7805    1.0267 C.ar      12 UNK        -0.0762 
     14 C14        32.1071   25.4762    0.5566 C.ar      12 UNK        -0.0782 
     15 C15        32.0526   27.9657    0.0984 C.3       12 UNK         0.0230 
     16 S16        30.4073   28.7122    0.3381 S.3       12 UNK        -0.2608 
     17 C17        29.2741   27.4047   -0.2629 C.3       12 UNK        -0.0989 
     18 CA         28.2387   27.8743   -1.3191 C.3       5 UNK         0.0716 
     19 N          27.5986   26.7142   -1.9374 N.am      5 UNK        -0.4135 
     20 C          27.0661   26.6848   -3.1638 C.2       4 UNK         0.5031 
     21 O          27.1224   27.6257   -3.9573 O.2       4 UNK        -0.5229 
     22 CA         26.3557   25.3900   -3.5845 C.3       4 UNK         0.0329 
     23 CB         27.3802   24.3132   -3.9812 C.3       4 UNK        -0.2001 
     24 N          25.4864   24.8676   -2.5252 N.am      4 UNK        -0.4303 
     25 C          24.2013   24.5200   -2.6912 C.2       3 UNK         0.5044 
     26 O          23.5966   24.6253   -3.7594 O.2       3 UNK        -0.5152 
     27 CA         23.4522   23.9297   -1.4783 C.3       3 UNK         0.0319 
     28 CB         23.3766   22.3982   -1.5917 C.3       3 UNK        -0.2001 
     29 N          24.0553   24.2796   -0.1915 N.am      3 UNK        -0.4354 
     30 C          24.0000   25.4934    0.3729 C.2       2 UNK         0.4964 
     31 O          23.3103   26.4122   -0.0700 O.2       2 UNK        -0.5047 
     32 CA         24.8487   25.7327    1.6401 C.3       2 UNK         0.0288 
     33 CB         23.9446   25.8735    2.8764 C.3       2 UNK        -0.2113 
     34 N          25.8868   24.7317    1.9287 N.am      2 UNK        -0.4145 
     35 C          26.9091   24.3850    1.1303 C.2       1 UNK         0.5006 
     36 O          27.0216   24.7719   -0.0362 O.2       1 UNK        -0.5103 
     37 C          27.1603   28.7824   -0.6936 C.2       5 UNK         0.5055 
     38 O          26.0498   28.3313   -0.4091 O.2       5 UNK        -0.5220 
     39 N          27.5372   30.0350   -0.4147 N.am      6 UNK        -0.4450 
     40 CA         26.7665   30.9823    0.3971 C.3       6 UNK         0.0367 
     41 CB         27.1942   32.4110    0.0158 C.3       6 UNK        -0.1929 
     42 C          26.9268   30.7454    1.9168 C.2       6 UNK         0.5070 
     43 O          26.4443   31.5644    2.6992 O.2       6 UNK        -0.5237 
     44 N          27.6239   29.6641    2.3049 N.am      7 UNK        -0.4739 
     45 CA         28.0655   29.3095    3.6593 C.3       7 UNK         0.0276 
     46 CB         26.8686   29.0286    4.5922 C.3       7 UNK        -0.1927 
     47 C          29.0616   30.3429    4.2155 C.2       7 UNK         0.5013 
     48 O          28.9332   30.7860    5.3588 O.2       7 UNK        -0.5193 
     49 N          30.0253   30.7258    3.3661 N.am      8 UNK        -0.4253 
     50 CA         31.0833   31.6869    3.6675 C.3       8 UNK         0.0242 
     51 CB         31.8016   32.0585    2.3598 C.3       8 UNK        -0.2000 
     52 C          32.0875   31.1226    4.6823 C.2       8 UNK         0.4948 
     53 O          32.4264   29.9376    4.6178 O.2       8 UNK        -0.5275 
     54 N          32.6068   31.9942    5.5560 N.am      9 UNK        -0.4246 
     55 CA         33.5861   31.6797    6.6044 C.3       9 UNK         0.0261 
     56 CB         33.5284   32.7773    7.6840 C.3       9 UNK        -0.1959 
     57 C          35.0175   31.4517    6.0680 C.2       9 UNK         0.5033 
     58 O          35.9833   31.9434    6.6549 O.2       9 UNK        -0.5390 
     59 N          35.1312   30.7101    4.9602 N.am      10 UNK        -0.4215 
     60 CA         36.3922   30.2771    4.3570 C.3       10 UNK         0.0240 
     61 CB         36.1400   29.8865    2.8910 C.3       10 UNK        -0.1982 
     62 C          37.0207   29.1038    5.1269 C.2       10 UNK         0.4970 
     63 O          38.2465   28.9959    5.1749 O.2       10 UNK        -0.4916 
     64 N          36.1674   28.2502    5.7039 N.am      11 UNK        -0.4279 
     65 CA         36.5461   27.0969    6.5261 C.3       11 UNK         0.1003 
     66 C          36.9750   27.5284    7.9529 C.2       11 UNK         0.5709 
     67 N          37.9559   26.8544    8.5376 N.am      11 UNK        -0.7358 
     68 O          36.4006   28.4386    8.5482 O.2       11 UNK        -0.4999 
     69 C69        35.4023   26.0522    6.5801 C.3       12 UNK        -0.0954 
     70 S70        35.0000   25.4043    4.9233 S.3       12 UNK        -0.2268 
     71 C71        33.3472   26.1154    4.6413 C.3       12 UNK         0.0203 
     72 H72        30.1170   25.2567    5.2534 H         1 UNK         0.0888 
     73 H73        28.4662   25.7983    5.5679 H         1 UNK         0.0888 
     74 H74        28.8561   24.0761    5.6162 H         1 UNK         0.0888 
     75 H75        28.1518   23.0079    3.7946 H         1 UNK         0.3017 
     76 H76        27.5168   22.4589    1.7587 H         1 UNK         0.0873 
     77 H77        29.6621   24.3402    0.6988 H         1 UNK         0.0745 
     78 H78        28.9793   22.9794   -0.1498 H         1 UNK         0.0745 
     79 H79        32.0335   22.9501   -0.1999 H         1 UNK         0.0705 
     80 H80        32.8961   22.3368    1.1872 H         1 UNK         0.0705 
     81 H81        32.8197   23.7525    3.3910 H         1 UNK         0.1334 
     82 H82        32.8287   27.9924    2.7170 H         1 UNK         0.1417 
     83 H83        31.8122   25.3112   -0.4704 H         1 UNK         0.1562 
     84 H84        32.1698   27.6706   -0.9455 H         1 UNK         0.0748 
     85 H85        32.8123   28.7263    0.2851 H         1 UNK         0.0748 
     86 H86        28.7737   26.9536    0.5946 H         1 UNK         0.0940 
     87 H87        29.8743   26.6067   -0.6982 H         1 UNK         0.0940 
     88 H88        28.7612   28.4391   -2.0945 H         1 UNK         0.0703 
     89 H89        27.4464   25.9250   -1.3131 H         1 UNK         0.3081 
     90 H90        25.7649   25.6332   -4.4702 H         1 UNK         0.0719 
     91 H91        28.0528   24.6795   -4.7581 H         1 UNK         0.0809 
     92 H92        27.9941   24.0060   -3.1334 H         1 UNK         0.0809 
     93 H93        26.8855   23.4248   -4.3741 H         1 UNK         0.0809 
     94 H94        25.8977   24.7730   -1.6015 H         1 UNK         0.2990 
     95 H95        22.4336   24.3233   -1.4989 H         1 UNK         0.0690 
     96 H96        22.7900   21.9679   -0.7798 H         1 UNK         0.0788 
     97 H97        24.3672   21.9418   -1.5712 H         1 UNK         0.0788 
     98 H98        22.9000   22.0992   -2.5265 H         1 UNK         0.0788 
     99 H99        24.6312   23.5772    0.2480 H         1 UNK         0.2993 
    100 H100       25.3636   26.6834    1.4920 H         1 UNK         0.0949 
    101 H101       23.1851   26.6414    2.7216 H         1 UNK         0.0767 
    102 H102       23.4251   24.9416    3.1032 H         1 UNK         0.0767 
    103 H103       24.5176   26.1643    3.7572 H         1 UNK         0.0767 
    104 H104       25.8820   24.3510    2.8638 H         1 UNK         0.3013 
    105 H105       28.4788   30.3144   -0.6551 H         1 UNK         0.3121 
    106 H106       25.7056   30.8702    0.1632 H         1 UNK         0.0774 
    107 H107       26.5955   33.1547    0.5436 H         1 UNK         0.0815 
    108 H108       28.2395   32.5992    0.2646 H         1 UNK         0.0815 
    109 H109       27.0630   32.5940   -1.0508 H         1 UNK         0.0815 
    110 H110       27.9749   29.0621    1.5739 H         1 UNK         0.2987 
    111 H111       28.6290   28.3812    3.5650 H         1 UNK         0.0949 
    112 H112       27.2098   28.6490    5.5560 H         1 UNK         0.0806 
    113 H113       26.2037   28.2776    4.1655 H         1 UNK         0.0806 
    114 H114       26.2825   29.9268    4.7873 H         1 UNK         0.0806 
    115 H115       30.0714   30.2743    2.4639 H         1 UNK         0.3010 
    116 H116       30.6187   32.5831    4.0843 H         1 UNK         0.0829 
    117 H117       32.2703   31.1890    1.8959 H         1 UNK         0.0813 
    118 H118       31.1107   32.4919    1.6362 H         1 UNK         0.0813 
    119 H119       32.5863   32.7950    2.5382 H         1 UNK         0.0813 
    120 H120       32.3129   32.9593    5.5030 H         1 UNK         0.3038 
    121 H121       33.2830   30.7423    7.0760 H         1 UNK         0.0769 
    122 H122       34.1833   32.5380    8.5230 H         1 UNK         0.0811 
    123 H123       32.5214   32.8865    8.0871 H         1 UNK         0.0811 
    124 H124       33.8414   33.7456    7.2914 H         1 UNK         0.0811 
    125 H125       34.2685   30.3383    4.5694 H         1 UNK         0.3204 
    126 H126       37.0973   31.1110    4.3770 H         1 UNK         0.0748 
    127 H127       37.0671   29.5801    2.4044 H         1 UNK         0.0771 
    128 H128       35.4376   29.0556    2.8073 H         1 UNK         0.0771 
    129 H129       35.7372   30.7242    2.3213 H         1 UNK         0.0771 
    130 H130       35.1799   28.4371    5.6372 H         1 UNK         0.2980 
    131 H131       37.4074   26.6219    6.0510 H         1 UNK         0.0545 
    132 H132       38.4243   26.0977    8.0636 H         1 UNK         0.3459 
    133 H133       38.2373   27.1109    9.4710 H         1 UNK         0.3459 
    134 H134       35.6933   25.2022    7.2000 H         1 UNK         0.0616 
    135 H135       34.5084   26.4748    7.0428 H         1 UNK         0.0616 
    136 H136       32.6340   25.6545    5.3257 H         1 UNK         0.0634 
    137 H137       33.3657   27.1805    4.8773 H         1 UNK         0.0634 
@<TRIPOS>BOND
     1    1    2 1    
     2    1   72 1    
     3    1   73 1    
     4    1   74 1    
     5    2    3 2    
     6    2    4 am   BACKBONE|DICT|INTERRES
     7    4    5 1    
     8    4   75 1    
     9    5    6 1    
    10    5   35 1    
    11    5   76 1    
    12    6    7 1    
    13    6   77 1    
    14    6   78 1    
    15    7    8 1    
    16    8    9 1    
    17    8   79 1    
    18    8   80 1    
    19    9   10 ar   
    20    9   14 ar   
    21   10   11 ar   
    22   10   81 1    
    23   11   12 ar   
    24   11   71 1    
    25   12   13 ar   
    26   12   82 1    
    27   13   14 ar   
    28   13   15 1    
    29   14   83 1    
    30   15   16 1    
    31   15   84 1    
    32   15   85 1    
    33   16   17 1    
    34   17   18 1    
    35   17   86 1    
    36   17   87 1    
    37   18   19 1    
    38   18   37 1    
    39   18   88 1    
    40   19   20 am   BACKBONE|DICT|INTERRES
    41   19   89 1    
    42   20   21 2    
    43   20   22 1    
    44   22   23 1    
    45   22   24 1    
    46   22   90 1    
    47   23   91 1    
    48   23   92 1    
    49   23   93 1    
    50   24   25 am   BACKBONE|DICT|INTERRES
    51   24   94 1    
    52   25   26 2    
    53   25   27 1    
    54   27   28 1    
    55   27   29 1    
    56   27   95 1    
    57   28   96 1    
    58   28   97 1    
    59   28   98 1    
    60   29   30 am   BACKBONE|DICT|INTERRES
    61   29   99 1    
    62   30   31 2    
    63   30   32 1    
    64   32   33 1    
    65   32   34 1    
    66   32  100 1    
    67   33  101 1    
    68   33  102 1    
    69   33  103 1    
    70   34   35 am   BACKBONE|DICT|INTERRES
    71   34  104 1    
    72   35   36 2    
    73   37   38 2    
    74   37   39 am   BACKBONE|DICT|INTERRES
    75   39   40 1    
    76   39  105 1    
    77   40   41 1    
    78   40   42 1    
    79   40  106 1    
    80   41  107 1    
    81   41  108 1    
    82   41  109 1    
    83   42   43 2    
    84   42   44 am   BACKBONE|DICT|INTERRES
    85   44   45 1    
    86   44  110 1    
    87   45   46 1    
    88   45   47 1    
    89   45  111 1    
    90   46  112 1    
    91   46  113 1    
    92   46  114 1    
    93   47   48 2    
    94   47   49 am   BACKBONE|DICT|INTERRES
    95   49   50 1    
    96   49  115 1    
    97   50   51 1    
    98   50   52 1    
    99   50  116 1    
   100   51  117 1    
   101   51  118 1    
   102   51  119 1    
   103   52   53 2    
   104   52   54 am   BACKBONE|DICT|INTERRES
   105   54   55 1    
   106   54  120 1    
   107   55   56 1    
   108   55   57 1    
   109   55  121 1    
   110   56  122 1    
   111   56  123 1    
   112   56  124 1    
   113   57   58 2    
   114   57   59 am   BACKBONE|DICT|INTERRES
   115   59   60 1    
   116   59  125 1    
   117   60   61 1    
   118   60   62 1    
   119   60  126 1    
   120   61  127 1    
   121   61  128 1    
   122   61  129 1    
   123   62   63 2    
   124   62   64 am   BACKBONE|DICT|INTERRES
   125   64   65 1    
   126   64  130 1    
   127   65   66 1    
   128   65   69 1    
   129   65  131 1    
   130   66   67 am   BACKBONE|DICT|INTERRES
   131   66   68 2    
   132   67  132 1    
   133   67  133 1    
   134   69   70 1    
   135   69  134 1    
   136   69  135 1    
   137   70   71 1    
   138   71  136 1    
   139   71  137 1    
@<TRIPOS>SUBSTRUCTURE
     1 UNK         1 GROUP             0       ****    0 ROOT    
