@<TRIPOS>MOLECULE
3R136
137   139    1
SMALL
USER_CHARGES


@<TRIPOS>ATOM
      1 CA         29.7370   24.1721    6.7701 C.3       0 UNK        -0.1979 
      2 C          29.6884   24.5844    5.3072 C.2       0 UNK         0.4864 
      3 O          30.4097   25.4984    4.9086 O.2       0 UNK        -0.5359 
      4 N          28.8296   23.9234    4.5157 N.am      1 UNK        -0.4318 
      5 CA         28.6403   24.1151    3.0665 C.3       1 UNK         0.0824 
      6 C6         29.9011   23.7688    2.2268 C.3       12 UNK        -0.0944 
      7 S7         30.5353   22.0878    2.5604 S.3       12 UNK        -0.2672 
      8 C8         31.1648   21.5853    0.9211 C.3       12 UNK         0.0333 
      9 C9         32.1271   22.5956    0.3016 C.ar      12 UNK        -0.0807 
     10 C10        33.1385   23.1894    1.0655 C.ar      12 UNK        -0.0894 
     11 C11        33.9748   24.1605    0.5096 C.ar      12 UNK        -0.0804 
     12 C12        33.8256   24.5044   -0.8374 C.ar      12 UNK        -0.0824 
     13 C13        32.8413   23.8951   -1.6231 C.ar      12 UNK        -0.0762 
     14 C14        31.9946   22.9434   -1.0469 C.ar      12 UNK        -0.0782 
     15 C15        32.6868   24.2758   -3.0913 C.3       12 UNK         0.0230 
     16 S16        31.1349   25.1739   -3.4285 S.3       12 UNK        -0.2608 
     17 C17        31.3068   26.6213   -2.3290 C.3       12 UNK        -0.0989 
     18 CA         29.9805   27.3825   -2.0717 C.3       5 UNK         0.0716 
     19 N          28.8790   26.4752   -1.7410 N.am      5 UNK        -0.4135 
     20 C          27.5852   26.8103   -1.6765 C.2       4 UNK         0.5031 
     21 O          27.1713   27.9641   -1.8019 O.2       4 UNK        -0.5229 
     22 CA         26.5747   25.6693   -1.4709 C.3       4 UNK         0.0329 
     23 CB         27.2059   24.2617   -1.3909 C.3       4 UNK        -0.2001 
     24 N          25.8344   25.9243   -0.2413 N.am      4 UNK        -0.4303 
     25 C          24.5324   26.2283   -0.1568 C.2       3 UNK         0.5044 
     26 O          23.7812   26.3026   -1.1306 O.2       3 UNK        -0.5152 
     27 CA         23.9476   26.4647    1.2510 C.3       3 UNK         0.0319 
     28 CB         22.9786   25.3315    1.6292 C.3       3 UNK        -0.2001 
     29 N          24.9724   26.5724    2.2923 N.am      3 UNK        -0.4354 
     30 C          25.7186   27.6614    2.5207 C.2       2 UNK         0.4964 
     31 O          25.5613   28.7356    1.9414 O.2       2 UNK        -0.5047 
     32 CA         26.8498   27.5171    3.5517 C.3       2 UNK         0.0288 
     33 CB         26.3967   28.0048    4.9367 C.3       2 UNK        -0.2113 
     34 N          27.3906   26.1585    3.6676 N.am      2 UNK        -0.4145 
     35 C          28.0644   25.5064    2.7063 C.2       1 UNK         0.5006 
     36 O          28.2242   25.9623    1.5707 O.2       1 UNK        -0.5103 
     37 C          30.2337   28.4501   -0.9904 C.2       5 UNK         0.5055 
     38 O          30.6252   29.5702   -1.3218 O.2       5 UNK        -0.5220 
     39 N          30.0658   28.0747    0.2841 N.am      6 UNK        -0.4450 
     40 CA         30.5760   28.8132    1.4406 C.3       6 UNK         0.0367 
     41 CB         30.9571   27.7935    2.5257 C.3       6 UNK        -0.1929 
     42 C          29.5934   29.8894    1.9395 C.2       6 UNK         0.5070 
     43 O          29.3827   30.0268    3.1443 O.2       6 UNK        -0.5237 
     44 N          28.9925   30.6341    1.0038 N.am      7 UNK        -0.4739 
     45 CA         27.9756   31.6535    1.2758 C.3       7 UNK         0.0276 
     46 CB         27.2959   32.0499   -0.0443 C.3       7 UNK        -0.1927 
     47 C          28.5196   32.8968    2.0032 C.2       7 UNK         0.5013 
     48 O          27.7707   33.5295    2.7487 O.2       7 UNK        -0.5193 
     49 N          29.7979   33.2308    1.7717 N.am      8 UNK        -0.4253 
     50 CA         30.4872   34.3571    2.4090 C.3       8 UNK         0.0242 
     51 CB         31.7527   34.7076    1.6086 C.3       8 UNK        -0.2000 
     52 C          30.8334   34.0778    3.8816 C.2       8 UNK         0.4948 
     53 O          30.6355   34.9495    4.7290 O.2       8 UNK        -0.5275 
     54 N          31.3322   32.8678    4.1529 N.am      9 UNK        -0.4246 
     55 CA         31.6861   32.3362    5.4646 C.3       9 UNK         0.0261 
     56 CB         32.9720   32.9947    6.0007 C.3       9 UNK        -0.1959 
     57 C          31.8767   30.8272    5.2877 C.2       9 UNK         0.5033 
     58 O          32.4052   30.4173    4.2509 O.2       9 UNK        -0.5390 
     59 N          31.4382   30.0453    6.2831 N.am      10 UNK        -0.4215 
     60 CA         31.4174   28.5790    6.2666 C.3       10 UNK         0.0240 
     61 CB         30.7312   28.0735    7.5463 C.3       10 UNK        -0.1982 
     62 C          32.8107   27.9402    6.1221 C.2       10 UNK         0.4970 
     63 O          33.7822   28.4506    6.6863 O.2       10 UNK        -0.4916 
     64 N          32.8616   26.8125    5.4067 N.am      11 UNK        -0.4279 
     65 CA         34.0444   25.9550    5.2665 C.3       11 UNK         0.1003 
     66 C          34.2723   25.0777    6.5284 C.2       11 UNK         0.5709 
     67 N          35.4997   24.6263    6.7494 N.am      11 UNK        -0.7358 
     68 O          33.3563   24.7789    7.2927 O.2       11 UNK        -0.4999 
     69 C69        33.9566   25.0909    3.9791 C.3       12 UNK        -0.0954 
     70 S70        34.2989   26.0806    2.4836 S.3       12 UNK        -0.2268 
     71 C71        35.0337   24.8433    1.3639 C.3       12 UNK         0.0203 
     72 H72        29.1801   23.2536    6.9532 H         1 UNK         0.0888 
     73 H73        30.7688   24.0063    7.0777 H         1 UNK         0.0888 
     74 H74        29.3153   24.9574    7.3961 H         1 UNK         0.0888 
     75 H75        28.2750   23.1810    4.9192 H         1 UNK         0.3017 
     76 H76        27.8615   23.4082    2.7769 H         1 UNK         0.0873 
     77 H77        30.7038   24.4830    2.4188 H         1 UNK         0.0745 
     78 H78        29.6780   23.8445    1.1614 H         1 UNK         0.0745 
     79 H79        30.3096   21.4172    0.2646 H         1 UNK         0.0705 
     80 H80        31.6748   20.6262    1.0182 H         1 UNK         0.0705 
     81 H81        33.2535   22.9205    2.1061 H         1 UNK         0.1334 
     82 H82        34.4724   25.2537   -1.2733 H         1 UNK         0.1417 
     83 H83        31.2232   22.4851   -1.6511 H         1 UNK         0.1562 
     84 H84        32.7094   23.3707   -3.6998 H         1 UNK         0.0748 
     85 H85        33.5274   24.8868   -3.4242 H         1 UNK         0.0748 
     86 H86        32.0511   27.2924   -2.7628 H         1 UNK         0.0940 
     87 H87        31.7240   26.2836   -1.3790 H         1 UNK         0.0940 
     88 H88        29.7040   27.9046   -2.9902 H         1 UNK         0.0703 
     89 H89        29.1296   25.5027   -1.6413 H         1 UNK         0.3081 
     90 H90        25.9062   25.6871   -2.3338 H         1 UNK         0.0719 
     91 H91        26.4352   23.4994   -1.2751 H         1 UNK         0.0809 
     92 H92        27.7540   24.0176   -2.3022 H         1 UNK         0.0809 
     93 H93        27.8892   24.1621   -0.5470 H         1 UNK         0.0809 
     94 H94        26.4000   25.9668    0.5984 H         1 UNK         0.2990 
     95 H95        23.3831   27.3990    1.2163 H         1 UNK         0.0690 
     96 H96        23.4829   24.3653    1.6714 H         1 UNK         0.0788 
     97 H97        22.1725   25.2461    0.8990 H         1 UNK         0.0788 
     98 H98        22.5148   25.5126    2.5991 H         1 UNK         0.0788 
     99 H99        25.1619   25.7399    2.8312 H         1 UNK         0.2993 
    100 H100       27.6618   28.1592    3.2155 H         1 UNK         0.0949 
    101 H101       25.6025   27.3799    5.3469 H         1 UNK         0.0767 
    102 H102       27.2261   28.0079    5.6446 H         1 UNK         0.0767 
    103 H103       26.0165   29.0262    4.8840 H         1 UNK         0.0767 
    104 H104       27.3116   25.7151    4.5710 H         1 UNK         0.3013 
    105 H105       29.6234   27.1841    0.4835 H         1 UNK         0.3121 
    106 H106       31.4931   29.3294    1.1484 H         1 UNK         0.0774 
    107 H107       30.0932   27.4634    3.0995 H         1 UNK         0.0815 
    108 H108       31.6651   28.2296    3.2253 H         1 UNK         0.0815 
    109 H109       31.4364   26.9095    2.1059 H         1 UNK         0.0815 
    110 H110       29.2386   30.4626    0.0355 H         1 UNK         0.2987 
    111 H111       27.2205   31.2031    1.9247 H         1 UNK         0.0949 
    112 H112       28.0051   32.4824   -0.7511 H         1 UNK         0.0806 
    113 H113       26.8279   31.1880   -0.5213 H         1 UNK         0.0806 
    114 H114       26.5120   32.7891    0.1269 H         1 UNK         0.0806 
    115 H115       30.3322   32.6570    1.1356 H         1 UNK         0.3010 
    116 H116       29.8224   35.2236    2.3839 H         1 UNK         0.0829 
    117 H117       31.5086   34.9871    0.5835 H         1 UNK         0.0813 
    118 H118       32.2746   35.5539    2.0577 H         1 UNK         0.0813 
    119 H119       32.4557   33.8745    1.5715 H         1 UNK         0.0813 
    120 H120       31.4450   32.1930    3.4061 H         1 UNK         0.3038 
    121 H121       30.8588   32.5212    6.1529 H         1 UNK         0.0769 
    122 H122       33.8092   32.8540    5.3159 H         1 UNK         0.0811 
    123 H123       33.2593   32.5639    6.9606 H         1 UNK         0.0811 
    124 H124       32.8415   34.0658    6.1544 H         1 UNK         0.0811 
    125 H125       31.0568   30.4855    7.1074 H         1 UNK         0.3204 
    126 H126       30.8055   28.2760    5.4151 H         1 UNK         0.0748 
    127 H127       31.2573   28.4032    8.4432 H         1 UNK         0.0771 
    128 H128       29.6999   28.4212    7.6096 H         1 UNK         0.0771 
    129 H129       30.7060   26.9835    7.5685 H         1 UNK         0.0771 
    130 H130       31.9880   26.4074    5.0732 H         1 UNK         0.2980 
    131 H131       34.9178   26.6050    5.1815 H         1 UNK         0.0545 
    132 H132       36.2606   24.8563    6.1293 H         1 UNK         0.3459 
    133 H133       35.6691   24.0473    7.5569 H         1 UNK         0.3459 
    134 H134       34.6776   24.2728    4.0161 H         1 UNK         0.0616 
    135 H135       32.9729   24.6267    3.8860 H         1 UNK         0.0616 
    136 H136       35.5994   24.1000    1.9267 H         1 UNK         0.0634 
    137 H137       35.7592   25.3505    0.7263 H         1 UNK         0.0634 
@<TRIPOS>BOND
     1    1    2 1    
     2    1   72 1    
     3    1   73 1    
     4    1   74 1    
     5    2    3 2    
     6    2    4 am   BACKBONE|DICT|INTERRES
     7    4    5 1    
     8    4   75 1    
     9    5    6 1    
    10    5   35 1    
    11    5   76 1    
    12    6    7 1    
    13    6   77 1    
    14    6   78 1    
    15    7    8 1    
    16    8    9 1    
    17    8   79 1    
    18    8   80 1    
    19    9   10 ar   
    20    9   14 ar   
    21   10   11 ar   
    22   10   81 1    
    23   11   12 ar   
    24   11   71 1    
    25   12   13 ar   
    26   12   82 1    
    27   13   14 ar   
    28   13   15 1    
    29   14   83 1    
    30   15   16 1    
    31   15   84 1    
    32   15   85 1    
    33   16   17 1    
    34   17   18 1    
    35   17   86 1    
    36   17   87 1    
    37   18   19 1    
    38   18   37 1    
    39   18   88 1    
    40   19   20 am   BACKBONE|DICT|INTERRES
    41   19   89 1    
    42   20   21 2    
    43   20   22 1    
    44   22   23 1    
    45   22   24 1    
    46   22   90 1    
    47   23   91 1    
    48   23   92 1    
    49   23   93 1    
    50   24   25 am   BACKBONE|DICT|INTERRES
    51   24   94 1    
    52   25   26 2    
    53   25   27 1    
    54   27   28 1    
    55   27   29 1    
    56   27   95 1    
    57   28   96 1    
    58   28   97 1    
    59   28   98 1    
    60   29   30 am   BACKBONE|DICT|INTERRES
    61   29   99 1    
    62   30   31 2    
    63   30   32 1    
    64   32   33 1    
    65   32   34 1    
    66   32  100 1    
    67   33  101 1    
    68   33  102 1    
    69   33  103 1    
    70   34   35 am   BACKBONE|DICT|INTERRES
    71   34  104 1    
    72   35   36 2    
    73   37   38 2    
    74   37   39 am   BACKBONE|DICT|INTERRES
    75   39   40 1    
    76   39  105 1    
    77   40   41 1    
    78   40   42 1    
    79   40  106 1    
    80   41  107 1    
    81   41  108 1    
    82   41  109 1    
    83   42   43 2    
    84   42   44 am   BACKBONE|DICT|INTERRES
    85   44   45 1    
    86   44  110 1    
    87   45   46 1    
    88   45   47 1    
    89   45  111 1    
    90   46  112 1    
    91   46  113 1    
    92   46  114 1    
    93   47   48 2    
    94   47   49 am   BACKBONE|DICT|INTERRES
    95   49   50 1    
    96   49  115 1    
    97   50   51 1    
    98   50   52 1    
    99   50  116 1    
   100   51  117 1    
   101   51  118 1    
   102   51  119 1    
   103   52   53 2    
   104   52   54 am   BACKBONE|DICT|INTERRES
   105   54   55 1    
   106   54  120 1    
   107   55   56 1    
   108   55   57 1    
   109   55  121 1    
   110   56  122 1    
   111   56  123 1    
   112   56  124 1    
   113   57   58 2    
   114   57   59 am   BACKBONE|DICT|INTERRES
   115   59   60 1    
   116   59  125 1    
   117   60   61 1    
   118   60   62 1    
   119   60  126 1    
   120   61  127 1    
   121   61  128 1    
   122   61  129 1    
   123   62   63 2    
   124   62   64 am   BACKBONE|DICT|INTERRES
   125   64   65 1    
   126   64  130 1    
   127   65   66 1    
   128   65   69 1    
   129   65  131 1    
   130   66   67 am   BACKBONE|DICT|INTERRES
   131   66   68 2    
   132   67  132 1    
   133   67  133 1    
   134   69   70 1    
   135   69  134 1    
   136   69  135 1    
   137   70   71 1    
   138   71  136 1    
   139   71  137 1    
@<TRIPOS>SUBSTRUCTURE
     1 UNK         1 GROUP             0       ****    0 ROOT    
