@<TRIPOS>MOLECULE
3R136
137   139    1
SMALL
USER_CHARGES


@<TRIPOS>ATOM
      1 CA         29.5674   22.9990   -2.8238 C.3       0 UNK        -0.1979 
      2 C          28.8710   22.9791   -1.4724 C.2       0 UNK         0.4864 
      3 O          27.8997   23.7123   -1.2775 O.2       0 UNK        -0.5359 
      4 N          29.3509   22.1492   -0.5363 N.am      1 UNK        -0.4318 
      5 CA         28.8127   22.0195    0.8218 C.3       1 UNK         0.0824 
      6 C6         29.6482   21.0602    1.7055 C.3       12 UNK        -0.0944 
      7 S7         31.3917   21.5735    1.8724 S.3       12 UNK        -0.2672 
      8 C8         31.3924   22.3967    3.4980 C.3       12 UNK         0.0333 
      9 C9         30.8024   23.7965    3.4145 C.ar      12 UNK        -0.0807 
     10 C10        31.6120   24.8732    3.0395 C.ar      12 UNK        -0.0894 
     11 C11        31.0788   26.1614    2.9443 C.ar      12 UNK        -0.0804 
     12 C12        29.7259   26.3674    3.2298 C.ar      12 UNK        -0.0824 
     13 C13        28.9022   25.2979    3.5908 C.ar      12 UNK        -0.0762 
     14 C14        29.4507   24.0162    3.6994 C.ar      12 UNK        -0.0782 
     15 C15        27.4213   25.5247    3.8587 C.3       12 UNK         0.0230 
     16 S16        26.4667   25.6448    2.3086 S.3       12 UNK        -0.2608 
     17 C17        26.6830   27.3999    1.8581 C.3       12 UNK        -0.0989 
     18 CA         27.5170   27.5887    0.5659 C.3       5 UNK         0.0716 
     19 N          26.8052   27.0938   -0.6155 N.am      5 UNK        -0.4135 
     20 C          27.3103   27.0287   -1.8545 C.2       4 UNK         0.5031 
     21 O          28.4712   27.3280   -2.1421 O.2       4 UNK        -0.5229 
     22 CA         26.3577   26.5009   -2.9364 C.3       4 UNK         0.0329 
     23 CB         26.9801   26.4972   -4.3475 C.3       4 UNK        -0.2001 
     24 N          25.9461   25.1488   -2.5732 N.am      4 UNK        -0.4303 
     25 C          24.7809   24.5736   -2.8909 C.2       3 UNK         0.5044 
     26 O          23.8881   25.1399   -3.5225 O.2       3 UNK        -0.5152 
     27 CA         24.5652   23.1280   -2.4202 C.3       3 UNK         0.0319 
     28 CB         25.2687   22.1379   -3.3637 C.3       3 UNK        -0.2001 
     29 N          25.0531   22.9300   -1.0525 N.am      3 UNK        -0.4354 
     30 C          24.3255   22.4338   -0.0410 C.2       2 UNK         0.4964 
     31 O          23.1531   22.0740   -0.1628 O.2       2 UNK        -0.5047 
     32 CA         24.9920   22.3414    1.3495 C.3       2 UNK         0.0288 
     33 CB         24.5342   21.1018    2.1490 C.3       2 UNK        -0.2113 
     34 N          26.4569   22.4493    1.3280 N.am      2 UNK        -0.4145 
     35 C          27.3335   21.5845    0.7958 C.2       1 UNK         0.5006 
     36 O          27.0280   20.5087    0.2763 O.2       1 UNK        -0.5103 
     37 C          27.9025   29.0742    0.4084 C.2       5 UNK         0.5055 
     38 O          27.0610   29.8857    0.0126 O.2       5 UNK        -0.5220 
     39 N          29.1487   29.3987    0.7692 N.am      6 UNK        -0.4450 
     40 CA         29.6454   30.7654    0.9324 C.3       6 UNK         0.0367 
     41 CB         31.1315   30.8041    0.5256 C.3       6 UNK        -0.1929 
     42 C          29.4483   31.2261    2.3893 C.2       6 UNK         0.5070 
     43 O          28.9024   30.4819    3.2093 O.2       6 UNK        -0.5237 
     44 N          29.9041   32.4480    2.6933 N.am      7 UNK        -0.4739 
     45 CA         29.9645   32.9848    4.0548 C.3       7 UNK         0.0276 
     46 CB         30.3122   34.4809    3.9945 C.3       7 UNK        -0.1927 
     47 C          31.0083   32.2294    4.8932 C.2       7 UNK         0.5013 
     48 O          32.1045   31.9652    4.3944 O.2       7 UNK        -0.5193 
     49 N          30.6755   31.9397    6.1585 N.am      8 UNK        -0.4253 
     50 CA         31.4798   31.1315    7.0869 C.3       8 UNK         0.0242 
     51 CB         30.7287   30.9979    8.4216 C.3       8 UNK        -0.2000 
     52 C          32.9162   31.6345    7.3285 C.2       8 UNK         0.4948 
     53 O          33.7859   30.8266    7.6523 O.2       8 UNK        -0.5275 
     54 N          33.1457   32.9423    7.1465 N.am      9 UNK        -0.4246 
     55 CA         34.4667   33.5719    7.1898 C.3       9 UNK         0.0261 
     56 CB         34.2940   35.0965    7.2886 C.3       9 UNK        -0.1959 
     57 C          35.3618   33.2105    5.9877 C.2       9 UNK         0.5033 
     58 O          36.5852   33.2545    6.1271 O.2       9 UNK        -0.5390 
     59 N          34.7575   32.8775    4.8374 N.am      10 UNK        -0.4215 
     60 CA         35.4618   32.4593    3.6236 C.3       10 UNK         0.0240 
     61 CB         34.6710   32.9193    2.3866 C.3       10 UNK        -0.1982 
     62 C          35.6799   30.9387    3.5860 C.2       10 UNK         0.4970 
     63 O          36.6845   30.4941    3.0287 O.2       10 UNK        -0.4916 
     64 N          34.7411   30.1736    4.1588 N.am      11 UNK        -0.4279 
     65 CA         34.7837   28.7058    4.2484 C.3       11 UNK         0.1003 
     66 C          35.9677   28.1719    5.1021 C.2       11 UNK         0.5709 
     67 N          36.4515   26.9731    4.8043 N.am      11 UNK        -0.7358 
     68 O          36.4278   28.8094    6.0474 O.2       11 UNK        -0.4999 
     69 C69        33.4375   28.1203    4.7505 C.3       12 UNK        -0.0954 
     70 S70        32.0286   28.6514    3.7260 S.3       12 UNK        -0.2268 
     71 C71        31.9464   27.3239    2.4862 C.3       12 UNK         0.0203 
     72 H72        29.8978   24.0110   -3.0568 H         1 UNK         0.0888 
     73 H73        30.4381   22.3439   -2.8432 H         1 UNK         0.0888 
     74 H74        28.8803   22.6769   -3.6054 H         1 UNK         0.0888 
     75 H75        30.1449   21.5616   -0.7458 H         1 UNK         0.3017 
     76 H76        28.8652   23.0171    1.2599 H         1 UNK         0.0873 
     77 H77        29.6381   20.0530    1.2841 H         1 UNK         0.0745 
     78 H78        29.2068   20.9698    2.6998 H         1 UNK         0.0745 
     79 H79        32.4207   22.4563    3.8578 H         1 UNK         0.0705 
     80 H80        30.8541   21.7896    4.2275 H         1 UNK         0.0705 
     81 H81        32.6546   24.7024    2.8082 H         1 UNK         0.1334 
     82 H82        29.3163   27.3652    3.1641 H         1 UNK         0.1417 
     83 H83        28.8220   23.1848    3.9880 H         1 UNK         0.1562 
     84 H84        27.2780   26.4197    4.4659 H         1 UNK         0.0748 
     85 H85        27.0178   24.6994    4.4475 H         1 UNK         0.0748 
     86 H86        27.1348   27.9321    2.6973 H         1 UNK         0.0940 
     87 H87        25.6933   27.8455    1.7390 H         1 UNK         0.0940 
     88 H88        28.4346   27.0025    0.6538 H         1 UNK         0.0703 
     89 H89        25.8461   26.8165   -0.4706 H         1 UNK         0.3081 
     90 H90        25.4870   27.1602   -2.9431 H         1 UNK         0.0719 
     91 H91        27.3093   27.4973   -4.6324 H         1 UNK         0.0809 
     92 H92        27.8472   25.8376   -4.4011 H         1 UNK         0.0809 
     93 H93        26.2617   26.1673   -5.0979 H         1 UNK         0.0809 
     94 H94        26.6473   24.6131   -2.0583 H         1 UNK         0.2990 
     95 H95        23.4914   22.9364   -2.4725 H         1 UNK         0.0690 
     96 H96        26.3504   22.2738   -3.3605 H         1 UNK         0.0788 
     97 H97        24.9250   22.2652   -4.3912 H         1 UNK         0.0788 
     98 H98        25.0617   21.1067   -3.0771 H         1 UNK         0.0788 
     99 H99        26.0161   23.1983   -0.8757 H         1 UNK         0.2993 
    100 H100       24.6399   23.2191    1.8933 H         1 UNK         0.0949 
    101 H101       24.7647   20.1728    1.6269 H         1 UNK         0.0767 
    102 H102       25.0095   21.0641    3.1292 H         1 UNK         0.0767 
    103 H103       23.4564   21.1191    2.3152 H         1 UNK         0.0767 
    104 H104       26.8138   23.3275    1.6846 H         1 UNK         0.3013 
    105 H105       29.7506   28.6725    1.1252 H         1 UNK         0.3121 
    106 H106       29.0879   31.4434    0.2825 H         1 UNK         0.0774 
    107 H107       31.5096   31.8264    0.4990 H         1 UNK         0.0815 
    108 H108       31.7599   30.2478    1.2210 H         1 UNK         0.0815 
    109 H109       31.2812   30.3851   -0.4696 H         1 UNK         0.0815 
    110 H110       30.3632   32.9894    1.9757 H         1 UNK         0.2987 
    111 H111       28.9803   32.8684    4.5143 H         1 UNK         0.0949 
    112 H112       29.5735   35.0375    3.4174 H         1 UNK         0.0806 
    113 H113       30.3360   34.9179    4.9936 H         1 UNK         0.0806 
    114 H114       31.2901   34.6508    3.5413 H         1 UNK         0.0806 
    115 H115       29.7627   32.2179    6.4897 H         1 UNK         0.3010 
    116 H116       31.5655   30.1367    6.6448 H         1 UNK         0.0829 
    117 H117       29.7550   30.5270    8.2852 H         1 UNK         0.0813 
    118 H118       31.2881   30.3788    9.1247 H         1 UNK         0.0813 
    119 H119       30.5717   31.9678    8.8953 H         1 UNK         0.0813 
    120 H120       32.3653   33.5320    6.8966 H         1 UNK         0.3038 
    121 H121       34.9765   33.2270    8.0922 H         1 UNK         0.0769 
    122 H122       35.2624   35.5950    7.3524 H         1 UNK         0.0811 
    123 H123       33.7294   35.3760    8.1784 H         1 UNK         0.0811 
    124 H124       33.7759   35.5025    6.4188 H         1 UNK         0.0811 
    125 H125       33.7436   32.7991    4.8106 H         1 UNK         0.3204 
    126 H126       36.4428   32.9383    3.5896 H         1 UNK         0.0748 
    127 H127       35.2060   32.6702    1.4692 H         1 UNK         0.0771 
    128 H128       33.6909   32.4444    2.3284 H         1 UNK         0.0771 
    129 H129       34.5204   33.9990    2.3910 H         1 UNK         0.0771 
    130 H130       33.9215   30.6175    4.5505 H         1 UNK         0.2980 
    131 H131       34.9404   28.3449    3.2300 H         1 UNK         0.0545 
    132 H132       37.2109   26.6029    5.3541 H         1 UNK         0.3459 
    133 H133       36.0794   26.4338    4.0385 H         1 UNK         0.3459 
    134 H134       33.4663   27.0292    4.7692 H         1 UNK         0.0616 
    135 H135       33.2461   28.4381    5.7769 H         1 UNK         0.0616 
    136 H136       31.5277   27.7294    1.5653 H         1 UNK         0.0634 
    137 H137       32.9559   26.9928    2.2377 H         1 UNK         0.0634 
@<TRIPOS>BOND
     1    1    2 1    
     2    1   72 1    
     3    1   73 1    
     4    1   74 1    
     5    2    3 2    
     6    2    4 am   BACKBONE|DICT|INTERRES
     7    4    5 1    
     8    4   75 1    
     9    5    6 1    
    10    5   35 1    
    11    5   76 1    
    12    6    7 1    
    13    6   77 1    
    14    6   78 1    
    15    7    8 1    
    16    8    9 1    
    17    8   79 1    
    18    8   80 1    
    19    9   10 ar   
    20    9   14 ar   
    21   10   11 ar   
    22   10   81 1    
    23   11   12 ar   
    24   11   71 1    
    25   12   13 ar   
    26   12   82 1    
    27   13   14 ar   
    28   13   15 1    
    29   14   83 1    
    30   15   16 1    
    31   15   84 1    
    32   15   85 1    
    33   16   17 1    
    34   17   18 1    
    35   17   86 1    
    36   17   87 1    
    37   18   19 1    
    38   18   37 1    
    39   18   88 1    
    40   19   20 am   BACKBONE|DICT|INTERRES
    41   19   89 1    
    42   20   21 2    
    43   20   22 1    
    44   22   23 1    
    45   22   24 1    
    46   22   90 1    
    47   23   91 1    
    48   23   92 1    
    49   23   93 1    
    50   24   25 am   BACKBONE|DICT|INTERRES
    51   24   94 1    
    52   25   26 2    
    53   25   27 1    
    54   27   28 1    
    55   27   29 1    
    56   27   95 1    
    57   28   96 1    
    58   28   97 1    
    59   28   98 1    
    60   29   30 am   BACKBONE|DICT|INTERRES
    61   29   99 1    
    62   30   31 2    
    63   30   32 1    
    64   32   33 1    
    65   32   34 1    
    66   32  100 1    
    67   33  101 1    
    68   33  102 1    
    69   33  103 1    
    70   34   35 am   BACKBONE|DICT|INTERRES
    71   34  104 1    
    72   35   36 2    
    73   37   38 2    
    74   37   39 am   BACKBONE|DICT|INTERRES
    75   39   40 1    
    76   39  105 1    
    77   40   41 1    
    78   40   42 1    
    79   40  106 1    
    80   41  107 1    
    81   41  108 1    
    82   41  109 1    
    83   42   43 2    
    84   42   44 am   BACKBONE|DICT|INTERRES
    85   44   45 1    
    86   44  110 1    
    87   45   46 1    
    88   45   47 1    
    89   45  111 1    
    90   46  112 1    
    91   46  113 1    
    92   46  114 1    
    93   47   48 2    
    94   47   49 am   BACKBONE|DICT|INTERRES
    95   49   50 1    
    96   49  115 1    
    97   50   51 1    
    98   50   52 1    
    99   50  116 1    
   100   51  117 1    
   101   51  118 1    
   102   51  119 1    
   103   52   53 2    
   104   52   54 am   BACKBONE|DICT|INTERRES
   105   54   55 1    
   106   54  120 1    
   107   55   56 1    
   108   55   57 1    
   109   55  121 1    
   110   56  122 1    
   111   56  123 1    
   112   56  124 1    
   113   57   58 2    
   114   57   59 am   BACKBONE|DICT|INTERRES
   115   59   60 1    
   116   59  125 1    
   117   60   61 1    
   118   60   62 1    
   119   60  126 1    
   120   61  127 1    
   121   61  128 1    
   122   61  129 1    
   123   62   63 2    
   124   62   64 am   BACKBONE|DICT|INTERRES
   125   64   65 1    
   126   64  130 1    
   127   65   66 1    
   128   65   69 1    
   129   65  131 1    
   130   66   67 am   BACKBONE|DICT|INTERRES
   131   66   68 2    
   132   67  132 1    
   133   67  133 1    
   134   69   70 1    
   135   69  134 1    
   136   69  135 1    
   137   70   71 1    
   138   71  136 1    
   139   71  137 1    
@<TRIPOS>SUBSTRUCTURE
     1 UNK         1 GROUP             0       ****    0 ROOT    
