@<TRIPOS>MOLECULE
3R136
137   139    1
SMALL
USER_CHARGES


@<TRIPOS>ATOM
      1 CA         28.0249   24.4614   -2.3403 C.3       0 UNK        -0.1979 
      2 C          28.3470   24.3692   -0.8583 C.2       0 UNK         0.4864 
      3 O          28.1416   25.3366   -0.1174 O.2       0 UNK        -0.5359 
      4 N          28.8510   23.2040   -0.4328 N.am      1 UNK        -0.4318 
      5 CA         29.3220   22.9002    0.9250 C.3       1 UNK         0.0824 
      6 C6         30.0091   21.5103    1.0019 C.3       12 UNK        -0.0944 
      7 S7         31.2225   21.2127   -0.3311 S.3       12 UNK        -0.2672 
      8 C8         32.8119   21.4876    0.5190 C.3       12 UNK         0.0333 
      9 C9         33.0283   22.9336    0.9537 C.ar      12 UNK        -0.0807 
     10 C10        33.5168   23.2081    2.2335 C.ar      12 UNK        -0.0894 
     11 C11        33.7656   24.5234    2.6354 C.ar      12 UNK        -0.0804 
     12 C12        33.4906   25.5751    1.7539 C.ar      12 UNK        -0.0824 
     13 C13        32.9890   25.3202    0.4720 C.ar      12 UNK        -0.0762 
     14 C14        32.7861   23.9935    0.0735 C.ar      12 UNK        -0.0782 
     15 C15        32.7059   26.4838   -0.4772 C.3       12 UNK         0.0230 
     16 S16        31.1885   26.2512   -1.4681 S.3       12 UNK        -0.2608 
     17 C17        30.7711   27.9638   -1.9403 C.3       12 UNK        -0.0989 
     18 CA         29.6401   28.6239   -1.1071 C.3       5 UNK         0.0716 
     19 N          28.3236   27.9973   -1.2769 N.am      5 UNK        -0.4135 
     20 C          27.2586   28.6392   -1.7755 C.2       4 UNK         0.5031 
     21 O          27.3245   29.7137   -2.3753 O.2       4 UNK        -0.5229 
     22 CA         25.8649   28.0247   -1.5342 C.3       4 UNK         0.0329 
     23 CB         25.3972   27.2068   -2.7478 C.3       4 UNK        -0.2001 
     24 N          25.7011   27.2399   -0.3005 N.am      4 UNK        -0.4303 
     25 C          25.9483   27.6964    0.9384 C.2       3 UNK         0.5044 
     26 O          26.5134   28.7619    1.1770 O.2       3 UNK        -0.5152 
     27 CA         25.4569   26.8493    2.1173 C.3       3 UNK         0.0319 
     28 CB         23.9526   27.1282    2.3346 C.3       3 UNK        -0.2001 
     29 N          25.7335   25.4206    1.9266 N.am      3 UNK        -0.4354 
     30 C          25.4621   24.4585    2.8241 C.2       2 UNK         0.4964 
     31 O          24.9765   24.6704    3.9356 O.2       2 UNK        -0.5047 
     32 CA         25.7675   23.0041    2.4271 C.3       2 UNK         0.0288 
     33 CB         24.5564   22.3777    1.7163 C.3       2 UNK        -0.2113 
     34 N          26.9459   22.8748    1.5732 N.am      2 UNK        -0.4145 
     35 C          28.2128   22.9950    1.9959 C.2       1 UNK         0.5006 
     36 O          28.5230   23.1604    3.1759 O.2       1 UNK        -0.5103 
     37 C          29.9943   28.7311    0.3862 C.2       5 UNK         0.5055 
     38 O          30.6232   29.7141    0.7760 O.2       5 UNK        -0.5220 
     39 N          29.5925   27.7435    1.2013 N.am      6 UNK        -0.4450 
     40 CA         29.9430   27.6383    2.6198 C.3       6 UNK         0.0367 
     41 CB         29.3918   26.3207    3.1794 C.3       6 UNK        -0.1929 
     42 C          29.5202   28.8266    3.5032 C.2       6 UNK         0.5070 
     43 O          30.2300   29.1302    4.4614 O.2       6 UNK        -0.5237 
     44 N          28.3969   29.4798    3.1763 N.am      7 UNK        -0.4739 
     45 CA         27.9083   30.6672    3.8839 C.3       7 UNK         0.0276 
     46 CB         26.3814   30.7603    3.7280 C.3       7 UNK        -0.1927 
     47 C          28.5775   31.9684    3.4056 C.2       7 UNK         0.5013 
     48 O          28.5560   32.9539    4.1444 O.2       7 UNK        -0.5193 
     49 N          29.1388   31.9648    2.1878 N.am      8 UNK        -0.4253 
     50 CA         29.9123   33.0782    1.6309 C.3       8 UNK         0.0242 
     51 CB         29.8253   33.0532    0.0956 C.3       8 UNK        -0.2000 
     52 C          31.3744   33.0193    2.1007 C.2       8 UNK         0.4948 
     53 O          31.9600   34.0588    2.4086 O.2       8 UNK        -0.5275 
     54 N          31.9251   31.8004    2.1571 N.am      9 UNK        -0.4246 
     55 CA         33.2241   31.4662    2.7355 C.3       9 UNK         0.0261 
     56 CB         33.6093   30.0553    2.2474 C.3       9 UNK        -0.1959 
     57 C          33.2040   31.5273    4.2757 C.2       9 UNK         0.5033 
     58 O          32.1542   31.7234    4.8906 O.2       9 UNK        -0.5390 
     59 N          34.3747   31.2984    4.8832 N.am      10 UNK        -0.4215 
     60 CA         34.5562   31.1762    6.3352 C.3       10 UNK         0.0240 
     61 CB         36.0360   31.4400    6.6680 C.3       10 UNK        -0.1982 
     62 C          34.0937   29.8192    6.9140 C.2       10 UNK         0.4970 
     63 O          34.2655   29.5965    8.1133 O.2       10 UNK        -0.4916 
     64 N          33.5570   28.9309    6.0657 N.am      11 UNK        -0.4279 
     65 CA         33.0789   27.5856    6.4115 C.3       11 UNK         0.1003 
     66 C          31.9099   27.5889    7.4353 C.2       11 UNK         0.5709 
     67 N          30.8500   28.3486    7.1882 N.am      11 UNK        -0.7358 
     68 O          31.9709   26.9110    8.4584 O.2       11 UNK        -0.4999 
     69 C69        32.7218   26.7807    5.1321 C.3       12 UNK        -0.0954 
     70 S70        33.0962   25.0055    5.2877 S.3       12 UNK        -0.2268 
     71 C71        34.3713   24.7892    4.0078 C.3       12 UNK         0.0203 
     72 H72        28.6056   23.7433   -2.9190 H         1 UNK         0.0888 
     73 H73        26.9685   24.2575   -2.5080 H         1 UNK         0.0888 
     74 H74        28.2593   25.4549   -2.7203 H         1 UNK         0.0888 
     75 H75        29.0116   22.4659   -1.1041 H         1 UNK         0.3017 
     76 H76        30.0663   23.6591    1.1739 H         1 UNK         0.0873 
     77 H77        30.5004   21.3839    1.9689 H         1 UNK         0.0745 
     78 H78        29.2646   20.7141    0.9376 H         1 UNK         0.0745 
     79 H79        33.6202   21.2063   -0.1570 H         1 UNK         0.0705 
     80 H80        32.8747   20.8096    1.3717 H         1 UNK         0.0705 
     81 H81        33.7270   22.3947    2.9148 H         1 UNK         0.1334 
     82 H82        33.6833   26.5936    2.0597 H         1 UNK         0.1417 
     83 H83        32.4258   23.7819   -0.9238 H         1 UNK         0.1562 
     84 H84        33.5548   26.6111   -1.1499 H         1 UNK         0.0748 
     85 H85        32.6188   27.4096    0.0933 H         1 UNK         0.0748 
     86 H86        30.4809   27.9561   -2.9920 H         1 UNK         0.0940 
     87 H87        31.6733   28.5772   -1.8974 H         1 UNK         0.0940 
     88 H88        29.5876   29.6597   -1.4491 H         1 UNK         0.0703 
     89 H89        28.1822   27.0948   -0.8321 H         1 UNK         0.3081 
     90 H90        25.1813   28.8710   -1.4382 H         1 UNK         0.0719 
     91 H91        25.9959   26.3111   -2.8913 H         1 UNK         0.0809 
     92 H92        24.3556   26.9022   -2.6448 H         1 UNK         0.0809 
     93 H93        25.4696   27.7940   -3.6645 H         1 UNK         0.0809 
     94 H94        25.2169   26.3601   -0.3966 H         1 UNK         0.2990 
     95 H95        26.0024   27.1792    3.0040 H         1 UNK         0.0690 
     96 H96        23.5964   26.7372    3.2869 H         1 UNK         0.0788 
     97 H97        23.3424   26.6904    1.5439 H         1 UNK         0.0788 
     98 H98        23.7501   28.2005    2.3469 H         1 UNK         0.0788 
     99 H99        26.2505   25.1744    1.0908 H         1 UNK         0.2993 
    100 H100       25.9487   22.4438    3.3474 H         1 UNK         0.0949 
    101 H101       24.3303   22.8839    0.7768 H         1 UNK         0.0767 
    102 H102       24.7262   21.3231    1.4981 H         1 UNK         0.0767 
    103 H103       23.6641   22.4377    2.3414 H         1 UNK         0.0767 
    104 H104       26.7866   22.7153    0.5894 H         1 UNK         0.3013 
    105 H105       29.1109   26.9463    0.8018 H         1 UNK         0.3121 
    106 H106       31.0323   27.5900    2.6674 H         1 UNK         0.0774 
    107 H107       29.5138   26.2569    4.2613 H         1 UNK         0.0815 
    108 H108       28.3297   26.2015    2.9684 H         1 UNK         0.0815 
    109 H109       29.9209   25.4713    2.7496 H         1 UNK         0.0815 
    110 H110       27.8463   29.1671    2.3782 H         1 UNK         0.2987 
    111 H111       28.1310   30.5597    4.9480 H         1 UNK         0.0949 
    112 H112       26.0909   30.9302    2.6906 H         1 UNK         0.0806 
    113 H113       25.8898   29.8492    4.0694 H         1 UNK         0.0806 
    114 H114       25.9800   31.5863    4.3165 H         1 UNK         0.0806 
    115 H115       29.1573   31.0937    1.6735 H         1 UNK         0.3010 
    116 H116       29.4847   34.0217    1.9774 H         1 UNK         0.0829 
    117 H117       28.7916   33.1222   -0.2438 H         1 UNK         0.0813 
    118 H118       30.3654   33.8966   -0.3366 H         1 UNK         0.0813 
    119 H119       30.2551   32.1434   -0.3243 H         1 UNK         0.0813 
    120 H120       31.3716   31.0133    1.8262 H         1 UNK         0.3038 
    121 H121       33.9609   32.1858    2.3727 H         1 UNK         0.0769 
    122 H122       32.9136   29.3003    2.6161 H         1 UNK         0.0811 
    123 H123       34.6098   29.7707    2.5741 H         1 UNK         0.0811 
    124 H124       33.6044   30.0010    1.1583 H         1 UNK         0.0811 
    125 H125       35.1966   31.1470    4.3151 H         1 UNK         0.3204 
    126 H126       33.9584   31.9484    6.8244 H         1 UNK         0.0748 
    127 H127       36.2061   31.4276    7.7456 H         1 UNK         0.0771 
    128 H128       36.6898   30.6866    6.2268 H         1 UNK         0.0771 
    129 H129       36.3564   32.4175    6.3065 H         1 UNK         0.0771 
    130 H130       33.4017   29.2243    5.1151 H         1 UNK         0.2980 
    131 H131       33.9257   27.0958    6.8968 H         1 UNK         0.0545 
    132 H132       30.7633   28.8386    6.3016 H         1 UNK         0.3459 
    133 H133       30.0905   28.3669    7.8487 H         1 UNK         0.3459 
    134 H134       33.2647   27.1748    4.2735 H         1 UNK         0.0616 
    135 H135       31.6693   26.8857    4.8772 H         1 UNK         0.0616 
    136 H136       35.0054   23.9492    4.2955 H         1 UNK         0.0634 
    137 H137       35.0289   25.6593    3.9780 H         1 UNK         0.0634 
@<TRIPOS>BOND
     1    1    2 1    
     2    1   72 1    
     3    1   73 1    
     4    1   74 1    
     5    2    3 2    
     6    2    4 am   BACKBONE|DICT|INTERRES
     7    4    5 1    
     8    4   75 1    
     9    5    6 1    
    10    5   35 1    
    11    5   76 1    
    12    6    7 1    
    13    6   77 1    
    14    6   78 1    
    15    7    8 1    
    16    8    9 1    
    17    8   79 1    
    18    8   80 1    
    19    9   10 ar   
    20    9   14 ar   
    21   10   11 ar   
    22   10   81 1    
    23   11   12 ar   
    24   11   71 1    
    25   12   13 ar   
    26   12   82 1    
    27   13   14 ar   
    28   13   15 1    
    29   14   83 1    
    30   15   16 1    
    31   15   84 1    
    32   15   85 1    
    33   16   17 1    
    34   17   18 1    
    35   17   86 1    
    36   17   87 1    
    37   18   19 1    
    38   18   37 1    
    39   18   88 1    
    40   19   20 am   BACKBONE|DICT|INTERRES
    41   19   89 1    
    42   20   21 2    
    43   20   22 1    
    44   22   23 1    
    45   22   24 1    
    46   22   90 1    
    47   23   91 1    
    48   23   92 1    
    49   23   93 1    
    50   24   25 am   BACKBONE|DICT|INTERRES
    51   24   94 1    
    52   25   26 2    
    53   25   27 1    
    54   27   28 1    
    55   27   29 1    
    56   27   95 1    
    57   28   96 1    
    58   28   97 1    
    59   28   98 1    
    60   29   30 am   BACKBONE|DICT|INTERRES
    61   29   99 1    
    62   30   31 2    
    63   30   32 1    
    64   32   33 1    
    65   32   34 1    
    66   32  100 1    
    67   33  101 1    
    68   33  102 1    
    69   33  103 1    
    70   34   35 am   BACKBONE|DICT|INTERRES
    71   34  104 1    
    72   35   36 2    
    73   37   38 2    
    74   37   39 am   BACKBONE|DICT|INTERRES
    75   39   40 1    
    76   39  105 1    
    77   40   41 1    
    78   40   42 1    
    79   40  106 1    
    80   41  107 1    
    81   41  108 1    
    82   41  109 1    
    83   42   43 2    
    84   42   44 am   BACKBONE|DICT|INTERRES
    85   44   45 1    
    86   44  110 1    
    87   45   46 1    
    88   45   47 1    
    89   45  111 1    
    90   46  112 1    
    91   46  113 1    
    92   46  114 1    
    93   47   48 2    
    94   47   49 am   BACKBONE|DICT|INTERRES
    95   49   50 1    
    96   49  115 1    
    97   50   51 1    
    98   50   52 1    
    99   50  116 1    
   100   51  117 1    
   101   51  118 1    
   102   51  119 1    
   103   52   53 2    
   104   52   54 am   BACKBONE|DICT|INTERRES
   105   54   55 1    
   106   54  120 1    
   107   55   56 1    
   108   55   57 1    
   109   55  121 1    
   110   56  122 1    
   111   56  123 1    
   112   56  124 1    
   113   57   58 2    
   114   57   59 am   BACKBONE|DICT|INTERRES
   115   59   60 1    
   116   59  125 1    
   117   60   61 1    
   118   60   62 1    
   119   60  126 1    
   120   61  127 1    
   121   61  128 1    
   122   61  129 1    
   123   62   63 2    
   124   62   64 am   BACKBONE|DICT|INTERRES
   125   64   65 1    
   126   64  130 1    
   127   65   66 1    
   128   65   69 1    
   129   65  131 1    
   130   66   67 am   BACKBONE|DICT|INTERRES
   131   66   68 2    
   132   67  132 1    
   133   67  133 1    
   134   69   70 1    
   135   69  134 1    
   136   69  135 1    
   137   70   71 1    
   138   71  136 1    
   139   71  137 1    
@<TRIPOS>SUBSTRUCTURE
     1 UNK         1 GROUP             0       ****    0 ROOT    
