@<TRIPOS>MOLECULE
3R136
137   139    1
SMALL
USER_CHARGES


@<TRIPOS>ATOM
      1 CA         30.6982   18.3299   -1.4798 C.3       0 UNK        -0.1979 
      2 C          30.3454   19.7394   -1.0274 C.2       0 UNK         0.4864 
      3 O          30.8182   20.7089   -1.6231 O.2       0 UNK        -0.5359 
      4 N          29.5264   19.8603    0.0257 N.am      1 UNK        -0.4318 
      5 CA         29.0256   21.1344    0.5491 C.3       1 UNK         0.0824 
      6 C6         28.5295   20.9785    2.0102 C.3       12 UNK        -0.0944 
      7 S7         28.5690   22.5541    2.9291 S.3       12 UNK        -0.2672 
      8 C8         30.2461   22.5216    3.6377 C.3       12 UNK         0.0333 
      9 C9         30.9561   23.8452    3.4052 C.ar      12 UNK        -0.0807 
     10 C10        31.0317   24.8004    4.4242 C.ar      12 UNK        -0.0894 
     11 C11        31.6832   26.0177    4.2025 C.ar      12 UNK        -0.0804 
     12 C12        32.2637   26.2706    2.9578 C.ar      12 UNK        -0.0824 
     13 C13        32.1896   25.3280    1.9294 C.ar      12 UNK        -0.0762 
     14 C14        31.5402   24.1130    2.1631 C.ar      12 UNK        -0.0782 
     15 C15        32.8185   25.6098    0.5700 C.3       12 UNK         0.0230 
     16 S16        32.2685   27.1845   -0.1670 S.3       12 UNK        -0.2608 
     17 C17        30.4685   26.9318   -0.3470 C.3       12 UNK        -0.0989 
     18 CA         29.6669   28.1480    0.1813 C.3       5 UNK         0.0716 
     19 N          28.3538   28.2613   -0.4540 N.am      5 UNK        -0.4135 
     20 C          27.7019   29.4188   -0.6380 C.2       4 UNK         0.5031 
     21 O          28.1675   30.5230   -0.3571 O.2       4 UNK        -0.5229 
     22 CA         26.2842   29.3390   -1.2320 C.3       4 UNK         0.0329 
     23 CB         26.3357   29.4569   -2.7638 C.3       4 UNK        -0.2001 
     24 N          25.5672   28.1165   -0.8636 N.am      4 UNK        -0.4303 
     25 C          25.1802   27.8086    0.3822 C.2       3 UNK         0.5044 
     26 O          25.3599   28.5367    1.3578 O.2       3 UNK        -0.5152 
     27 CA         24.5241   26.4307    0.5755 C.3       3 UNK         0.0319 
     28 CB         23.0137   26.5128    0.3031 C.3       3 UNK        -0.2001 
     29 N          25.1126   25.3610   -0.2413 N.am      3 UNK        -0.4354 
     30 C          26.4022   24.9961   -0.2281 C.2       2 UNK         0.4964 
     31 O          27.2839   25.5834    0.4052 O.2       2 UNK        -0.5047 
     32 CA         26.7889   23.8002   -1.0983 C.3       2 UNK         0.0288 
     33 CB         27.3397   24.2688   -2.4560 C.3       2 UNK        -0.2113 
     34 N          27.8132   23.0477   -0.3831 N.am      2 UNK        -0.4145 
     35 C          27.9319   21.7164   -0.3730 C.2       1 UNK         0.5006 
     36 O          27.2075   20.9581   -1.0251 O.2       1 UNK        -0.5103 
     37 C          29.5242   28.1435    1.7161 C.2       5 UNK         0.5055 
     38 O          30.2682   28.8518    2.4024 O.2       5 UNK        -0.5220 
     39 N          28.5403   27.3728    2.2104 N.am      6 UNK        -0.4450 
     40 CA         28.1894   27.2123    3.6239 C.3       6 UNK         0.0367 
     41 CB         27.0448   26.1991    3.7605 C.3       6 UNK        -0.1929 
     42 C          27.8281   28.5250    4.3329 C.2       6 UNK         0.5070 
     43 O          28.1001   28.6561    5.5264 O.2       6 UNK        -0.5237 
     44 N          27.2855   29.4970    3.5870 N.am      7 UNK        -0.4739 
     45 CA         27.0200   30.8776    4.0073 C.3       7 UNK         0.0276 
     46 CB         26.0514   31.5158    2.9938 C.3       7 UNK        -0.1927 
     47 C          28.3007   31.7238    4.2146 C.2       7 UNK         0.5013 
     48 O          28.3499   32.8767    3.7823 O.2       7 UNK        -0.5193 
     49 N          29.3018   31.1372    4.8863 N.am      8 UNK        -0.4253 
     50 CA         30.5928   31.7000    5.2903 C.3       8 UNK         0.0242 
     51 CB         30.3929   32.7070    6.4426 C.3       8 UNK        -0.2000 
     52 C          31.4235   32.2761    4.1268 C.2       8 UNK         0.4948 
     53 O          31.9897   33.3625    4.2664 O.2       8 UNK        -0.5275 
     54 N          31.4909   31.5503    2.9989 N.am      9 UNK        -0.4246 
     55 CA         32.3369   31.9289    1.8628 C.3       9 UNK         0.0261 
     56 CB         31.8377   31.2653    0.5704 C.3       9 UNK        -0.1959 
     57 C          33.8065   31.5814    2.1445 C.2       9 UNK         0.5033 
     58 O          34.6430   32.4829    2.2137 O.2       9 UNK        -0.5390 
     59 N          34.0868   30.2817    2.3146 N.am      10 UNK        -0.4215 
     60 CA         35.4178   29.7683    2.6510 C.3       10 UNK         0.0240 
     61 CB         35.6086   28.3772    2.0229 C.3       10 UNK        -0.1982 
     62 C          35.6525   29.7094    4.1696 C.2       10 UNK         0.4970 
     63 O          36.7951   29.8577    4.6044 O.2       10 UNK        -0.4916 
     64 N          34.5838   29.4764    4.9426 N.am      11 UNK        -0.4279 
     65 CA         34.6186   29.3786    6.4085 C.3       11 UNK         0.1003 
     66 C          34.7457   30.7739    7.0729 C.2       11 UNK         0.5709 
     67 N          35.5381   30.8924    8.1294 N.am      11 UNK        -0.7358 
     68 O          34.0975   31.7351    6.6654 O.2       11 UNK        -0.4999 
     69 C69        33.3911   28.6122    6.9679 C.3       12 UNK        -0.0954 
     70 S70        33.2518   26.9293    6.2769 S.3       12 UNK        -0.2268 
     71 C71        31.7363   27.0817    5.2860 C.3       12 UNK         0.0203 
     72 H72        30.2249   17.5710   -0.8569 H         1 UNK         0.0888 
     73 H73        30.3740   18.1744   -2.5084 H         1 UNK         0.0888 
     74 H74        31.7767   18.1803   -1.4355 H         1 UNK         0.0888 
     75 H75        29.1401   19.0290    0.4497 H         1 UNK         0.3017 
     76 H76        29.8687   21.8280    0.5435 H         1 UNK         0.0873 
     77 H77        27.5154   20.5745    2.0434 H         1 UNK         0.0745 
     78 H78        29.1443   20.2568    2.5508 H         1 UNK         0.0745 
     79 H79        30.1786   22.2998    4.7038 H         1 UNK         0.0705 
     80 H80        30.8375   21.7185    3.1956 H         1 UNK         0.0705 
     81 H81        30.5761   24.6023    5.3848 H         1 UNK         0.1334 
     82 H82        32.7500   27.2176    2.7804 H         1 UNK         0.1417 
     83 H83        31.4858   23.3735    1.3767 H         1 UNK         0.1562 
     84 H84        32.6053   24.8037   -0.1339 H         1 UNK         0.0748 
     85 H85        33.9027   25.6381    0.6856 H         1 UNK         0.0748 
     86 H86        30.1501   26.0031    0.1307 H         1 UNK         0.0940 
     87 H87        30.2788   26.7942   -1.4127 H         1 UNK         0.0940 
     88 H88        30.2197   29.0446   -0.0945 H         1 UNK         0.0703 
     89 H89        27.8729   27.3938   -0.6511 H         1 UNK         0.3081 
     90 H90        25.7184   30.1882   -0.8422 H         1 UNK         0.0719 
     91 H91        26.8451   30.3729   -3.0669 H         1 UNK         0.0809 
     92 H92        26.8708   28.6215   -3.2172 H         1 UNK         0.0809 
     93 H93        25.3344   29.4889   -3.1937 H         1 UNK         0.0809 
     94 H94        25.3713   27.4569   -1.6025 H         1 UNK         0.2990 
     95 H95        24.6590   26.1475    1.6201 H         1 UNK         0.0690 
     96 H96        22.5490   27.2888    0.9134 H         1 UNK         0.0788 
     97 H97        22.5147   25.5739    0.5439 H         1 UNK         0.0788 
     98 H98        22.8019   26.7486   -0.7406 H         1 UNK         0.0788 
     99 H99        24.4680   24.8323   -0.8119 H         1 UNK         0.2993 
    100 H100       25.9061   23.1758   -1.2544 H         1 UNK         0.0949 
    101 H101       27.6218   23.4207   -3.0803 H         1 UNK         0.0767 
    102 H102       26.5928   24.8422   -3.0066 H         1 UNK         0.0767 
    103 H103       28.2200   24.9024   -2.3378 H         1 UNK         0.0767 
    104 H104       28.3746   23.6054    0.2488 H         1 UNK         0.3013 
    105 H105       28.0113   26.7977    1.5582 H         1 UNK         0.3121 
    106 H106       29.0632   26.8030    4.1268 H         1 UNK         0.0774 
    107 H107       26.8539   25.9683    4.8092 H         1 UNK         0.0815 
    108 H108       26.1180   26.5862    3.3392 H         1 UNK         0.0815 
    109 H109       27.2791   25.2605    3.2590 H         1 UNK         0.0815 
    110 H110       27.0555   29.2723    2.6263 H         1 UNK         0.2987 
    111 H111       26.5135   30.8414    4.9740 H         1 UNK         0.0949 
    112 H112       25.7645   32.5226    3.3001 H         1 UNK         0.0806 
    113 H113       26.5011   31.5884    2.0024 H         1 UNK         0.0806 
    114 H114       25.1335   30.9347    2.9020 H         1 UNK         0.0806 
    115 H115       29.1202   30.1857    5.1972 H         1 UNK         0.3010 
    116 H116       31.1755   30.8672    5.6844 H         1 UNK         0.0829 
    117 H117       31.3525   33.0463    6.8356 H         1 UNK         0.0813 
    118 H118       29.8425   33.5896    6.1149 H         1 UNK         0.0813 
    119 H119       29.8465   32.2585    7.2721 H         1 UNK         0.0813 
    120 H120       30.9791   30.6744    2.9293 H         1 UNK         0.3038 
    121 H121       32.2654   33.0095    1.7196 H         1 UNK         0.0769 
    122 H122       31.9803   30.1865    0.5881 H         1 UNK         0.0811 
    123 H123       32.3819   31.6464   -0.2945 H         1 UNK         0.0811 
    124 H124       30.7791   31.4659    0.4029 H         1 UNK         0.0811 
    125 H125       33.3421   29.6092    2.2044 H         1 UNK         0.3204 
    126 H126       36.1756   30.4293    2.2241 H         1 UNK         0.0748 
    127 H127       36.6345   28.0317    2.1575 H         1 UNK         0.0771 
    128 H128       34.9585   27.6290    2.4748 H         1 UNK         0.0771 
    129 H129       35.4113   28.3920    0.9506 H         1 UNK         0.0771 
    130 H130       33.6768   29.4000    4.5147 H         1 UNK         0.2980 
    131 H131       35.5076   28.8021    6.6738 H         1 UNK         0.0545 
    132 H132       35.6176   31.7895    8.5820 H         1 UNK         0.3459 
    133 H133       36.0640   30.1066    8.4793 H         1 UNK         0.3459 
    134 H134       32.4688   29.1665    6.7892 H         1 UNK         0.0616 
    135 H135       33.4742   28.5116    8.0516 H         1 UNK         0.0616 
    136 H136       30.8676   27.0071    5.9420 H         1 UNK         0.0634 
    137 H137       31.6873   28.0691    4.8242 H         1 UNK         0.0634 
@<TRIPOS>BOND
     1    1    2 1    
     2    1   72 1    
     3    1   73 1    
     4    1   74 1    
     5    2    3 2    
     6    2    4 am   BACKBONE|DICT|INTERRES
     7    4    5 1    
     8    4   75 1    
     9    5    6 1    
    10    5   35 1    
    11    5   76 1    
    12    6    7 1    
    13    6   77 1    
    14    6   78 1    
    15    7    8 1    
    16    8    9 1    
    17    8   79 1    
    18    8   80 1    
    19    9   10 ar   
    20    9   14 ar   
    21   10   11 ar   
    22   10   81 1    
    23   11   12 ar   
    24   11   71 1    
    25   12   13 ar   
    26   12   82 1    
    27   13   14 ar   
    28   13   15 1    
    29   14   83 1    
    30   15   16 1    
    31   15   84 1    
    32   15   85 1    
    33   16   17 1    
    34   17   18 1    
    35   17   86 1    
    36   17   87 1    
    37   18   19 1    
    38   18   37 1    
    39   18   88 1    
    40   19   20 am   BACKBONE|DICT|INTERRES
    41   19   89 1    
    42   20   21 2    
    43   20   22 1    
    44   22   23 1    
    45   22   24 1    
    46   22   90 1    
    47   23   91 1    
    48   23   92 1    
    49   23   93 1    
    50   24   25 am   BACKBONE|DICT|INTERRES
    51   24   94 1    
    52   25   26 2    
    53   25   27 1    
    54   27   28 1    
    55   27   29 1    
    56   27   95 1    
    57   28   96 1    
    58   28   97 1    
    59   28   98 1    
    60   29   30 am   BACKBONE|DICT|INTERRES
    61   29   99 1    
    62   30   31 2    
    63   30   32 1    
    64   32   33 1    
    65   32   34 1    
    66   32  100 1    
    67   33  101 1    
    68   33  102 1    
    69   33  103 1    
    70   34   35 am   BACKBONE|DICT|INTERRES
    71   34  104 1    
    72   35   36 2    
    73   37   38 2    
    74   37   39 am   BACKBONE|DICT|INTERRES
    75   39   40 1    
    76   39  105 1    
    77   40   41 1    
    78   40   42 1    
    79   40  106 1    
    80   41  107 1    
    81   41  108 1    
    82   41  109 1    
    83   42   43 2    
    84   42   44 am   BACKBONE|DICT|INTERRES
    85   44   45 1    
    86   44  110 1    
    87   45   46 1    
    88   45   47 1    
    89   45  111 1    
    90   46  112 1    
    91   46  113 1    
    92   46  114 1    
    93   47   48 2    
    94   47   49 am   BACKBONE|DICT|INTERRES
    95   49   50 1    
    96   49  115 1    
    97   50   51 1    
    98   50   52 1    
    99   50  116 1    
   100   51  117 1    
   101   51  118 1    
   102   51  119 1    
   103   52   53 2    
   104   52   54 am   BACKBONE|DICT|INTERRES
   105   54   55 1    
   106   54  120 1    
   107   55   56 1    
   108   55   57 1    
   109   55  121 1    
   110   56  122 1    
   111   56  123 1    
   112   56  124 1    
   113   57   58 2    
   114   57   59 am   BACKBONE|DICT|INTERRES
   115   59   60 1    
   116   59  125 1    
   117   60   61 1    
   118   60   62 1    
   119   60  126 1    
   120   61  127 1    
   121   61  128 1    
   122   61  129 1    
   123   62   63 2    
   124   62   64 am   BACKBONE|DICT|INTERRES
   125   64   65 1    
   126   64  130 1    
   127   65   66 1    
   128   65   69 1    
   129   65  131 1    
   130   66   67 am   BACKBONE|DICT|INTERRES
   131   66   68 2    
   132   67  132 1    
   133   67  133 1    
   134   69   70 1    
   135   69  134 1    
   136   69  135 1    
   137   70   71 1    
   138   71  136 1    
   139   71  137 1    
@<TRIPOS>SUBSTRUCTURE
     1 UNK         1 GROUP             0       ****    0 ROOT    
