@<TRIPOS>MOLECULE
3R136
137   139    1
SMALL
USER_CHARGES


@<TRIPOS>ATOM
      1 CA         31.0322   24.2439   -5.4625 C.3       0 UNK        -0.1979 
      2 C          30.5200   25.0373   -4.2693 C.2       0 UNK         0.4864 
      3 O          30.1846   26.2138   -4.4162 O.2       0 UNK        -0.5359 
      4 N          30.4666   24.4053   -3.0902 N.am      1 UNK        -0.4318 
      5 CA         29.9636   24.9944   -1.8443 C.3       1 UNK         0.0824 
      6 C6         30.3706   24.1627   -0.6025 C.3       12 UNK        -0.0944 
      7 S7         32.1774   23.9627   -0.4705 S.3       12 UNK        -0.2672 
      8 C8         32.3117   22.8988    1.0046 C.3       12 UNK         0.0333 
      9 C9         31.9104   23.6061    2.2950 C.ar      12 UNK        -0.0807 
     10 C10        32.4324   24.8670    2.6044 C.ar      12 UNK        -0.0894 
     11 C11        32.0761   25.5148    3.7886 C.ar      12 UNK        -0.0804 
     12 C12        31.2148   24.8764    4.6840 C.ar      12 UNK        -0.0824 
     13 C13        30.6929   23.6118    4.3985 C.ar      12 UNK        -0.0762 
     14 C14        31.0390   22.9842    3.1972 C.ar      12 UNK        -0.0782 
     15 C15        29.7827   22.9150    5.4044 C.3       12 UNK         0.0230 
     16 S16        28.0125   23.2277    5.0961 S.3       12 UNK        -0.2608 
     17 C17        27.8786   25.0160    5.4355 C.3       12 UNK        -0.0989 
     18 CA         27.7826   25.8216    4.1049 C.3       5 UNK         0.0716 
     19 N          26.4101   26.1078    3.6781 N.am      5 UNK        -0.4135 
     20 C          25.4993   26.8554    4.3227 C.2       4 UNK         0.5031 
     21 O          25.6862   27.3510    5.4346 O.2       4 UNK        -0.5229 
     22 CA         24.1517   27.1272    3.6187 C.3       4 UNK         0.0329 
     23 CB         23.9841   28.6320    3.3432 C.3       4 UNK        -0.2001 
     24 N          23.9830   26.4047    2.3567 N.am      4 UNK        -0.4303 
     25 C          23.7380   25.0931    2.2329 C.2       3 UNK         0.5044 
     26 O          23.5069   24.3470    3.1843 O.2       3 UNK        -0.5152 
     27 CA         23.8015   24.5073    0.8077 C.3       3 UNK         0.0319 
     28 CB         22.3845   24.3076    0.2462 C.3       3 UNK        -0.2001 
     29 N          24.5892   25.3065   -0.1434 N.am      3 UNK        -0.4354 
     30 C          25.8952   25.5864   -0.0251 C.2       2 UNK         0.4964 
     31 O          26.5908   25.2293    0.9295 O.2       2 UNK        -0.5047 
     32 CA         26.4989   26.4926   -1.1074 C.3       2 UNK         0.0288 
     33 CB         26.3120   27.9703   -0.7229 C.3       2 UNK        -0.2113 
     34 N          27.9261   26.2256   -1.2734 N.am      2 UNK        -0.4145 
     35 C          28.4315   25.1579   -1.9001 C.2       1 UNK         0.5006 
     36 O          27.7418   24.3123   -2.4788 O.2       1 UNK        -0.5103 
     37 C          28.6328   27.1061    4.0508 C.2       5 UNK         0.5055 
     38 O          29.1366   27.5901    5.0679 O.2       5 UNK        -0.5220 
     39 N          28.7737   27.6242    2.8273 N.am      6 UNK        -0.4450 
     40 CA         29.6530   28.7251    2.4661 C.3       6 UNK         0.0367 
     41 CB         28.8556   30.0386    2.4215 C.3       6 UNK        -0.1929 
     42 C          30.2739   28.4019    1.1056 C.2       6 UNK         0.5070 
     43 O          29.6478   27.7084    0.3008 O.2       6 UNK        -0.5237 
     44 N          31.4793   28.9211    0.8744 N.am      7 UNK        -0.4739 
     45 CA         32.2001   28.8407   -0.3932 C.3       7 UNK         0.0276 
     46 CB         33.4322   27.9294   -0.2182 C.3       7 UNK        -0.1927 
     47 C          32.5169   30.2818   -0.8155 C.2       7 UNK         0.5013 
     48 O          31.5848   31.0373   -1.0955 O.2       7 UNK        -0.5193 
     49 N          33.8015   30.6668   -0.8026 N.am      8 UNK        -0.4253 
     50 CA         34.2473   32.0595   -0.9479 C.3       8 UNK         0.0242 
     51 CB         35.7666   32.0843   -1.1820 C.3       8 UNK        -0.2000 
     52 C          33.8725   32.9354    0.2660 C.2       8 UNK         0.4948 
     53 O          33.7585   34.1537    0.1264 O.2       8 UNK        -0.5275 
     54 N          33.6743   32.2936    1.4217 N.am      9 UNK        -0.4246 
     55 CA         33.1653   32.8478    2.6680 C.3       9 UNK         0.0261 
     56 CB         34.3309   33.4266    3.4916 C.3       9 UNK        -0.1959 
     57 C          32.4521   31.7122    3.4168 C.2       9 UNK         0.5033 
     58 O          32.5432   30.5512    2.9989 O.2       9 UNK        -0.5390 
     59 N          31.7622   32.0591    4.5094 N.am      10 UNK        -0.4215 
     60 CA         31.1868   31.0991    5.4530 C.3       10 UNK         0.0240 
     61 CB         30.1360   31.8053    6.3243 C.3       10 UNK        -0.1982 
     62 C          32.2919   30.4788    6.3234 C.2       10 UNK         0.4970 
     63 O          33.2001   31.1964    6.7497 O.2       10 UNK        -0.4916 
     64 N          32.1825   29.1723    6.5819 N.am      11 UNK        -0.4279 
     65 CA         33.1505   28.3975    7.3789 C.3       11 UNK         0.1003 
     66 C          32.8380   28.3836    8.9040 C.2       11 UNK         0.5709 
     67 N          31.7353   28.9610    9.3675 N.am      11 UNK        -0.7358 
     68 O          33.6211   27.8512    9.6872 O.2       11 UNK        -0.4999 
     69 C69        33.3278   26.9599    6.8190 C.3       12 UNK        -0.0954 
     70 S70        34.0572   26.9365    5.1436 S.3       12 UNK        -0.2268 
     71 C71        32.5880   26.9194    4.0715 C.3       12 UNK         0.0203 
     72 H72        31.9112   24.7288   -5.8863 H         1 UNK         0.0888 
     73 H73        31.3066   23.2255   -5.1876 H         1 UNK         0.0888 
     74 H74        30.2653   24.1915   -6.2349 H         1 UNK         0.0888 
     75 H75        30.7479   23.4377   -3.0286 H         1 UNK         0.3017 
     76 H76        30.4073   25.9881   -1.7466 H         1 UNK         0.0873 
     77 H77        29.9098   23.1732   -0.6294 H         1 UNK         0.0745 
     78 H78        30.0152   24.6465    0.3102 H         1 UNK         0.0745 
     79 H79        33.3457   22.5654    1.1002 H         1 UNK         0.0705 
     80 H80        31.7116   22.0012    0.8472 H         1 UNK         0.0705 
     81 H81        33.1078   25.3517    1.9133 H         1 UNK         0.1334 
     82 H82        30.9362   25.3714    5.6013 H         1 UNK         0.1417 
     83 H83        30.6382   22.0048    2.9732 H         1 UNK         0.1562 
     84 H84        30.0334   23.2233    6.4207 H         1 UNK         0.0748 
     85 H85        29.9564   21.8384    5.3687 H         1 UNK         0.0748 
     86 H86        28.7241   25.3174    6.0526 H         1 UNK         0.0940 
     87 H87        27.0063   25.1788    6.0687 H         1 UNK         0.0940 
     88 H88        28.2012   25.2008    3.3099 H         1 UNK         0.0703 
     89 H89        26.1815   25.7567    2.7531 H         1 UNK         0.3081 
     90 H90        23.3608   26.8128    4.3029 H         1 UNK         0.0719 
     91 H91        24.7565   29.0081    2.6710 H         1 UNK         0.0809 
     92 H92        23.0133   28.8492    2.8971 H         1 UNK         0.0809 
     93 H93        24.0480   29.2093    4.2667 H         1 UNK         0.0809 
     94 H94        24.1410   26.9329    1.5114 H         1 UNK         0.2990 
     95 H95        24.2796   23.5286    0.8857 H         1 UNK         0.0690 
     96 H96        22.4068   23.8029   -0.7199 H         1 UNK         0.0788 
     97 H97        21.8627   25.2571    0.1189 H         1 UNK         0.0788 
     98 H98        21.7818   23.6921    0.9159 H         1 UNK         0.0788 
     99 H99        24.0903   25.6595   -0.9482 H         1 UNK         0.2993 
    100 H100       25.9941   26.3028   -2.0574 H         1 UNK         0.0949 
    101 H101       26.7463   28.6314   -1.4732 H         1 UNK         0.0767 
    102 H102       25.2551   28.2267   -0.6406 H         1 UNK         0.0767 
    103 H103       26.7813   28.2016    0.2344 H         1 UNK         0.0767 
    104 H104       28.5640   26.8336   -0.7578 H         1 UNK         0.3013 
    105 H105       28.3812   27.1347    2.0321 H         1 UNK         0.3121 
    106 H106       30.4578   28.8119    3.1947 H         1 UNK         0.0774 
    107 H107       29.5009   30.8767    2.1552 H         1 UNK         0.0815 
    108 H108       28.0509   29.9971    1.6865 H         1 UNK         0.0815 
    109 H109       28.4133   30.2652    3.3918 H         1 UNK         0.0815 
    110 H110       31.8959   29.5102    1.5943 H         1 UNK         0.2987 
    111 H111       31.5671   28.4179   -1.1768 H         1 UNK         0.0949 
    112 H112       34.0223   27.8773   -1.1342 H         1 UNK         0.0806 
    113 H113       34.0839   28.2630    0.5903 H         1 UNK         0.0806 
    114 H114       33.1226   26.9106    0.0137 H         1 UNK         0.0806 
    115 H115       34.5093   29.9815   -0.5805 H         1 UNK         0.3010 
    116 H116       33.7567   32.4867   -1.8253 H         1 UNK         0.0829 
    117 H117       36.0404   31.5236   -2.0760 H         1 UNK         0.0813 
    118 H118       36.1221   33.1063   -1.3214 H         1 UNK         0.0813 
    119 H119       36.3137   31.6622   -0.3380 H         1 UNK         0.0813 
    120 H120       33.7425   31.2839    1.4389 H         1 UNK         0.3038 
    121 H121       32.4354   33.6298    2.4481 H         1 UNK         0.0769 
    122 H122       33.9783   33.8694    4.4237 H         1 UNK         0.0811 
    123 H123       34.8540   34.2095    2.9421 H         1 UNK         0.0811 
    124 H124       35.0593   32.6572    3.7510 H         1 UNK         0.0811 
    125 H125       31.7663   33.0261    4.8001 H         1 UNK         0.3204 
    126 H126       30.6871   30.3084    4.8923 H         1 UNK         0.0748 
    127 H127       29.6636   31.1027    7.0121 H         1 UNK         0.0771 
    128 H128       30.5759   32.6038    6.9235 H         1 UNK         0.0771 
    129 H129       29.3436   32.2398    5.7144 H         1 UNK         0.0771 
    130 H130       31.3824   28.6625    6.2346 H         1 UNK         0.2980 
    131 H131       34.1244   28.8846    7.3000 H         1 UNK         0.0545 
    132 H132       31.5525   28.9485   10.3586 H         1 UNK         0.3459 
    133 H133       31.0881   29.4093    8.7404 H         1 UNK         0.3459 
    134 H134       34.0031   26.3844    7.4548 H         1 UNK         0.0616 
    135 H135       32.3806   26.4246    6.8333 H         1 UNK         0.0616 
    136 H136       32.8411   27.4192    3.1351 H         1 UNK         0.0634 
    137 H137       31.7966   27.5139    4.5217 H         1 UNK         0.0634 
@<TRIPOS>BOND
     1    1    2 1    
     2    1   72 1    
     3    1   73 1    
     4    1   74 1    
     5    2    3 2    
     6    2    4 am   BACKBONE|DICT|INTERRES
     7    4    5 1    
     8    4   75 1    
     9    5    6 1    
    10    5   35 1    
    11    5   76 1    
    12    6    7 1    
    13    6   77 1    
    14    6   78 1    
    15    7    8 1    
    16    8    9 1    
    17    8   79 1    
    18    8   80 1    
    19    9   10 ar   
    20    9   14 ar   
    21   10   11 ar   
    22   10   81 1    
    23   11   12 ar   
    24   11   71 1    
    25   12   13 ar   
    26   12   82 1    
    27   13   14 ar   
    28   13   15 1    
    29   14   83 1    
    30   15   16 1    
    31   15   84 1    
    32   15   85 1    
    33   16   17 1    
    34   17   18 1    
    35   17   86 1    
    36   17   87 1    
    37   18   19 1    
    38   18   37 1    
    39   18   88 1    
    40   19   20 am   BACKBONE|DICT|INTERRES
    41   19   89 1    
    42   20   21 2    
    43   20   22 1    
    44   22   23 1    
    45   22   24 1    
    46   22   90 1    
    47   23   91 1    
    48   23   92 1    
    49   23   93 1    
    50   24   25 am   BACKBONE|DICT|INTERRES
    51   24   94 1    
    52   25   26 2    
    53   25   27 1    
    54   27   28 1    
    55   27   29 1    
    56   27   95 1    
    57   28   96 1    
    58   28   97 1    
    59   28   98 1    
    60   29   30 am   BACKBONE|DICT|INTERRES
    61   29   99 1    
    62   30   31 2    
    63   30   32 1    
    64   32   33 1    
    65   32   34 1    
    66   32  100 1    
    67   33  101 1    
    68   33  102 1    
    69   33  103 1    
    70   34   35 am   BACKBONE|DICT|INTERRES
    71   34  104 1    
    72   35   36 2    
    73   37   38 2    
    74   37   39 am   BACKBONE|DICT|INTERRES
    75   39   40 1    
    76   39  105 1    
    77   40   41 1    
    78   40   42 1    
    79   40  106 1    
    80   41  107 1    
    81   41  108 1    
    82   41  109 1    
    83   42   43 2    
    84   42   44 am   BACKBONE|DICT|INTERRES
    85   44   45 1    
    86   44  110 1    
    87   45   46 1    
    88   45   47 1    
    89   45  111 1    
    90   46  112 1    
    91   46  113 1    
    92   46  114 1    
    93   47   48 2    
    94   47   49 am   BACKBONE|DICT|INTERRES
    95   49   50 1    
    96   49  115 1    
    97   50   51 1    
    98   50   52 1    
    99   50  116 1    
   100   51  117 1    
   101   51  118 1    
   102   51  119 1    
   103   52   53 2    
   104   52   54 am   BACKBONE|DICT|INTERRES
   105   54   55 1    
   106   54  120 1    
   107   55   56 1    
   108   55   57 1    
   109   55  121 1    
   110   56  122 1    
   111   56  123 1    
   112   56  124 1    
   113   57   58 2    
   114   57   59 am   BACKBONE|DICT|INTERRES
   115   59   60 1    
   116   59  125 1    
   117   60   61 1    
   118   60   62 1    
   119   60  126 1    
   120   61  127 1    
   121   61  128 1    
   122   61  129 1    
   123   62   63 2    
   124   62   64 am   BACKBONE|DICT|INTERRES
   125   64   65 1    
   126   64  130 1    
   127   65   66 1    
   128   65   69 1    
   129   65  131 1    
   130   66   67 am   BACKBONE|DICT|INTERRES
   131   66   68 2    
   132   67  132 1    
   133   67  133 1    
   134   69   70 1    
   135   69  134 1    
   136   69  135 1    
   137   70   71 1    
   138   71  136 1    
   139   71  137 1    
@<TRIPOS>SUBSTRUCTURE
     1 UNK         1 GROUP             0       ****    0 ROOT    
