@<TRIPOS>MOLECULE
3R136
137   139    1
SMALL
USER_CHARGES


@<TRIPOS>ATOM
      1 CA         28.0269   19.2955    1.7039 C.3       0 UNK        -0.1979 
      2 C          27.7138   19.7841    0.2971 C.2       0 UNK         0.4864 
      3 O          26.9393   19.1440   -0.4164 O.2       0 UNK        -0.5359 
      4 N          28.3162   20.9088   -0.1069 N.am      1 UNK        -0.4318 
      5 CA         28.0684   21.5862   -1.3824 C.3       1 UNK         0.0824 
      6 C6         29.2590   22.5001   -1.7807 C.3       12 UNK        -0.0944 
      7 S7         29.6737   23.7660   -0.5291 S.3       12 UNK        -0.2672 
      8 C8         31.3190   23.2084    0.0101 C.3       12 UNK         0.0333 
      9 C9         31.7098   23.9043    1.3016 C.ar      12 UNK        -0.0807 
     10 C10        32.3991   25.1204    1.2744 C.ar      12 UNK        -0.0894 
     11 C11        32.7008   25.7892    2.4653 C.ar      12 UNK        -0.0804 
     12 C12        32.3150   25.2274    3.6871 C.ar      12 UNK        -0.0824 
     13 C13        31.6186   24.0161    3.7224 C.ar      12 UNK        -0.0762 
     14 C14        31.3342   23.3507    2.5278 C.ar      12 UNK        -0.0782 
     15 C15        31.1078   23.4563    5.0402 C.3       12 UNK         0.0230 
     16 S16        29.2984   23.6413    5.1709 S.3       12 UNK        -0.2608 
     17 C17        29.1138   25.4537    5.3155 C.3       12 UNK        -0.0989 
     18 CA         28.8984   26.1793    3.9540 C.3       5 UNK         0.0716 
     19 N          27.8166   25.6247    3.1326 N.am      5 UNK        -0.4135 
     20 C          26.5112   25.6079    3.4295 C.2       4 UNK         0.5031 
     21 O          26.0387   26.0386    4.4833 O.2       4 UNK        -0.5229 
     22 CA         25.5815   25.0298    2.3417 C.3       4 UNK         0.0329 
     23 CB         24.1036   25.4166    2.5601 C.3       4 UNK        -0.2001 
     24 N          25.9866   25.3574    0.9653 N.am      4 UNK        -0.4303 
     25 C          26.1867   26.5826    0.4470 C.2       3 UNK         0.5044 
     26 O          26.1837   27.6128    1.1200 O.2       3 UNK        -0.5152 
     27 CA         26.4631   26.7022   -1.0655 C.3       3 UNK         0.0319 
     28 CB         27.8961   27.1974   -1.3144 C.3       3 UNK        -0.2001 
     29 N          26.2481   25.4588   -1.8081 N.am      3 UNK        -0.4354 
     30 C          25.0478   24.9353   -2.0996 C.2       2 UNK         0.4964 
     31 O          23.9809   25.4999   -1.8570 O.2       2 UNK        -0.5047 
     32 CA         25.0240   23.5349   -2.7461 C.3       2 UNK         0.0288 
     33 CB         24.7436   23.6455   -4.2540 C.3       2 UNK        -0.2113 
     34 N          26.2448   22.7426   -2.5427 N.am      2 UNK        -0.4145 
     35 C          26.7347   22.3641   -1.3525 C.2       1 UNK         0.5006 
     36 O          26.2074   22.6613   -0.2755 O.2       1 UNK        -0.5103 
     37 C          28.8287   27.7175    4.1106 C.2       5 UNK         0.5055 
     38 O          29.3828   28.2526    5.0725 O.2       5 UNK        -0.5220 
     39 N          28.1906   28.4121    3.1579 N.am      6 UNK        -0.4450 
     40 CA         28.1084   29.8732    3.0903 C.3       6 UNK         0.0367 
     41 CB         26.6465   30.3072    3.3052 C.3       6 UNK        -0.1929 
     42 C          28.6894   30.3950    1.7632 C.2       6 UNK         0.5070 
     43 O          28.2476   31.4329    1.2687 O.2       6 UNK        -0.5237 
     44 N          29.6731   29.6732    1.2026 N.am      7 UNK        -0.4739 
     45 CA         30.3607   30.0212   -0.0485 C.3       7 UNK         0.0276 
     46 CB         31.2181   28.8298   -0.5057 C.3       7 UNK        -0.1927 
     47 C          31.2293   31.2889    0.0588 C.2       7 UNK         0.5013 
     48 O          31.3908   32.0000   -0.9336 O.2       7 UNK        -0.5193 
     49 N          31.7603   31.5476    1.2576 N.am      8 UNK        -0.4253 
     50 CA         32.5181   32.7344    1.6341 C.3       8 UNK         0.0242 
     51 CB         33.9967   32.5701    1.2398 C.3       8 UNK        -0.2000 
     52 C          32.3705   32.8920    3.1481 C.2       8 UNK         0.4948 
     53 O          32.2701   31.8792    3.8451 O.2       8 UNK        -0.5275 
     54 N          32.3909   34.1360    3.6430 N.am      9 UNK        -0.4246 
     55 CA         32.1785   34.4757    5.0582 C.3       9 UNK         0.0261 
     56 CB         32.1355   36.0049    5.2122 C.3       9 UNK        -0.1959 
     57 C          33.2074   33.8675    6.0312 C.2       9 UNK         0.5033 
     58 O          32.8723   33.6279    7.1918 O.2       9 UNK        -0.5390 
     59 N          34.4286   33.6184    5.5419 N.am      10 UNK        -0.4215 
     60 CA         35.5155   32.9792    6.2865 C.3       10 UNK         0.0240 
     61 CB         36.8555   33.4454    5.6906 C.3       10 UNK        -0.1982 
     62 C          35.4399   31.4387    6.2957 C.2       10 UNK         0.4970 
     63 O          36.2218   30.8203    7.0195 O.2       10 UNK        -0.4916 
     64 N          34.5493   30.8461    5.4897 N.am      11 UNK        -0.4279 
     65 CA         34.4321   29.3966    5.2789 C.3       11 UNK         0.1003 
     66 C          33.0189   28.8642    5.6454 C.2       11 UNK         0.5709 
     67 N          31.9459   29.5566    5.2900 N.am      11 UNK        -0.7358 
     68 O          32.8970   27.8107    6.2657 O.2       11 UNK        -0.4999 
     69 C69        34.8569   29.0466    3.8257 C.3       12 UNK        -0.0954 
     70 S70        34.8617   27.2612    3.4442 S.3       12 UNK        -0.2268 
     71 C71        33.3551   27.1617    2.4273 C.3       12 UNK         0.0203 
     72 H72        28.7240   19.9560    2.2197 H         1 UNK         0.0888 
     73 H73        27.1123   19.2421    2.2938 H         1 UNK         0.0888 
     74 H74        28.4678   18.2997    1.6663 H         1 UNK         0.0888 
     75 H75        28.9033   21.4188    0.5361 H         1 UNK         0.3017 
     76 H76        27.9703   20.8183   -2.1532 H         1 UNK         0.0873 
     77 H77        29.0621   23.0073   -2.7269 H         1 UNK         0.0745 
     78 H78        30.1372   21.8813   -1.9715 H         1 UNK         0.0745 
     79 H79        31.3163   22.1273    0.1579 H         1 UNK         0.0705 
     80 H80        32.0494   23.4146   -0.7738 H         1 UNK         0.0705 
     81 H81        32.6681   25.5604    0.3237 H         1 UNK         0.1334 
     82 H82        32.5181   25.7580    4.6075 H         1 UNK         0.1417 
     83 H83        30.7783   22.4233    2.5537 H         1 UNK         0.1562 
     84 H84        31.5905   23.9430    5.8893 H         1 UNK         0.0748 
     85 H85        31.3629   22.3977    5.1068 H         1 UNK         0.0748 
     86 H86        29.9957   25.8477    5.8247 H         1 UNK         0.0940 
     87 H87        28.2745   25.6531    5.9838 H         1 UNK         0.0940 
     88 H88        29.7902   26.0218    3.3523 H         1 UNK         0.0703 
     89 H89        28.1003   25.2331    2.2459 H         1 UNK         0.3081 
     90 H90        25.6553   23.9447    2.4284 H         1 UNK         0.0719 
     91 H91        23.4615   24.9732    1.7989 H         1 UNK         0.0809 
     92 H92        23.9625   26.4977    2.5297 H         1 UNK         0.0809 
     93 H93        23.7441   25.0673    3.5288 H         1 UNK         0.0809 
     94 H94        26.0587   24.5562    0.3445 H         1 UNK         0.2990 
     95 H95        25.7750   27.4548   -1.4563 H         1 UNK         0.0690 
     96 H96        28.0955   27.3272   -2.3782 H         1 UNK         0.0788 
     97 H97        28.6377   26.5070   -0.9135 H         1 UNK         0.0788 
     98 H98        28.0587   28.1642   -0.8370 H         1 UNK         0.0788 
     99 H99        27.0729   24.9285   -2.0480 H         1 UNK         0.2993 
    100 H100       24.1998   22.9879   -2.2831 H         1 UNK         0.0949 
    101 H101       23.8243   24.2027   -4.4412 H         1 UNK         0.0767 
    102 H102       25.5495   24.1616   -4.7776 H         1 UNK         0.0767 
    103 H103       24.6207   22.6624   -4.7091 H         1 UNK         0.0767 
    104 H104       26.7400   22.4681   -3.3794 H         1 UNK         0.3013 
    105 H105       27.6944   27.9181    2.4212 H         1 UNK         0.3121 
    106 H106       28.7113   30.3277    3.8792 H         1 UNK         0.0774 
    107 H107       26.5589   31.3939    3.3385 H         1 UNK         0.0815 
    108 H108       25.9993   29.9507    2.5032 H         1 UNK         0.0815 
    109 H109       26.2547   29.9227    4.2469 H         1 UNK         0.0815 
    110 H110       29.9752   28.8339    1.6742 H         1 UNK         0.2987 
    111 H111       29.5990   30.2101   -0.8082 H         1 UNK         0.0949 
    112 H112       32.0325   28.6333    0.1899 H         1 UNK         0.0806 
    113 H113       30.6307   27.9174   -0.5995 H         1 UNK         0.0806 
    114 H114       31.6665   29.0266   -1.4805 H         1 UNK         0.0806 
    115 H115       31.5475   30.9342    2.0340 H         1 UNK         0.3010 
    116 H116       32.0921   33.6096    1.1386 H         1 UNK         0.0829 
    117 H117       34.1077   32.4414    0.1630 H         1 UNK         0.0813 
    118 H118       34.5783   33.4488    1.5210 H         1 UNK         0.0813 
    119 H119       34.4510   31.7062    1.7268 H         1 UNK         0.0813 
    120 H120       32.4957   34.9122    3.0044 H         1 UNK         0.3038 
    121 H121       31.2014   34.0786    5.3421 H         1 UNK         0.0769 
    122 H122       31.9525   36.2880    6.2499 H         1 UNK         0.0811 
    123 H123       31.3355   36.4428    4.6150 H         1 UNK         0.0811 
    124 H124       33.0752   36.4685    4.9094 H         1 UNK         0.0811 
    125 H125       34.6136   33.8584    4.5788 H         1 UNK         0.3204 
    126 H126       35.4745   33.3103    7.3265 H         1 UNK         0.0748 
    127 H127       37.6978   33.0306    6.2463 H         1 UNK         0.0771 
    128 H128       36.9664   33.1337    4.6511 H         1 UNK         0.0771 
    129 H129       36.9506   34.5308    5.7286 H         1 UNK         0.0771 
    130 H130       33.8858   31.4146    4.9766 H         1 UNK         0.2980 
    131 H131       35.1241   28.8763    5.9436 H         1 UNK         0.0545 
    132 H132       32.0286   30.4324    4.7781 H         1 UNK         0.3459 
    133 H133       31.0271   29.1683    5.4765 H         1 UNK         0.3459 
    134 H134       35.8700   29.4114    3.6497 H         1 UNK         0.0616 
    135 H135       34.2280   29.5767    3.1081 H         1 UNK         0.0616 
    136 H136       32.6205   27.8901    2.7731 H         1 UNK         0.0634 
    137 H137       33.6194   27.4413    1.4070 H         1 UNK         0.0634 
@<TRIPOS>BOND
     1    1    2 1    
     2    1   72 1    
     3    1   73 1    
     4    1   74 1    
     5    2    3 2    
     6    2    4 am   BACKBONE|DICT|INTERRES
     7    4    5 1    
     8    4   75 1    
     9    5    6 1    
    10    5   35 1    
    11    5   76 1    
    12    6    7 1    
    13    6   77 1    
    14    6   78 1    
    15    7    8 1    
    16    8    9 1    
    17    8   79 1    
    18    8   80 1    
    19    9   10 ar   
    20    9   14 ar   
    21   10   11 ar   
    22   10   81 1    
    23   11   12 ar   
    24   11   71 1    
    25   12   13 ar   
    26   12   82 1    
    27   13   14 ar   
    28   13   15 1    
    29   14   83 1    
    30   15   16 1    
    31   15   84 1    
    32   15   85 1    
    33   16   17 1    
    34   17   18 1    
    35   17   86 1    
    36   17   87 1    
    37   18   19 1    
    38   18   37 1    
    39   18   88 1    
    40   19   20 am   BACKBONE|DICT|INTERRES
    41   19   89 1    
    42   20   21 2    
    43   20   22 1    
    44   22   23 1    
    45   22   24 1    
    46   22   90 1    
    47   23   91 1    
    48   23   92 1    
    49   23   93 1    
    50   24   25 am   BACKBONE|DICT|INTERRES
    51   24   94 1    
    52   25   26 2    
    53   25   27 1    
    54   27   28 1    
    55   27   29 1    
    56   27   95 1    
    57   28   96 1    
    58   28   97 1    
    59   28   98 1    
    60   29   30 am   BACKBONE|DICT|INTERRES
    61   29   99 1    
    62   30   31 2    
    63   30   32 1    
    64   32   33 1    
    65   32   34 1    
    66   32  100 1    
    67   33  101 1    
    68   33  102 1    
    69   33  103 1    
    70   34   35 am   BACKBONE|DICT|INTERRES
    71   34  104 1    
    72   35   36 2    
    73   37   38 2    
    74   37   39 am   BACKBONE|DICT|INTERRES
    75   39   40 1    
    76   39  105 1    
    77   40   41 1    
    78   40   42 1    
    79   40  106 1    
    80   41  107 1    
    81   41  108 1    
    82   41  109 1    
    83   42   43 2    
    84   42   44 am   BACKBONE|DICT|INTERRES
    85   44   45 1    
    86   44  110 1    
    87   45   46 1    
    88   45   47 1    
    89   45  111 1    
    90   46  112 1    
    91   46  113 1    
    92   46  114 1    
    93   47   48 2    
    94   47   49 am   BACKBONE|DICT|INTERRES
    95   49   50 1    
    96   49  115 1    
    97   50   51 1    
    98   50   52 1    
    99   50  116 1    
   100   51  117 1    
   101   51  118 1    
   102   51  119 1    
   103   52   53 2    
   104   52   54 am   BACKBONE|DICT|INTERRES
   105   54   55 1    
   106   54  120 1    
   107   55   56 1    
   108   55   57 1    
   109   55  121 1    
   110   56  122 1    
   111   56  123 1    
   112   56  124 1    
   113   57   58 2    
   114   57   59 am   BACKBONE|DICT|INTERRES
   115   59   60 1    
   116   59  125 1    
   117   60   61 1    
   118   60   62 1    
   119   60  126 1    
   120   61  127 1    
   121   61  128 1    
   122   61  129 1    
   123   62   63 2    
   124   62   64 am   BACKBONE|DICT|INTERRES
   125   64   65 1    
   126   64  130 1    
   127   65   66 1    
   128   65   69 1    
   129   65  131 1    
   130   66   67 am   BACKBONE|DICT|INTERRES
   131   66   68 2    
   132   67  132 1    
   133   67  133 1    
   134   69   70 1    
   135   69  134 1    
   136   69  135 1    
   137   70   71 1    
   138   71  136 1    
   139   71  137 1    
@<TRIPOS>SUBSTRUCTURE
     1 UNK         1 GROUP             0       ****    0 ROOT    
