@<TRIPOS>MOLECULE
3R136
137   139    1
SMALL
USER_CHARGES


@<TRIPOS>ATOM
      1 CA         33.2899   23.2695   -4.0326 C.3       0 UNK        -0.1979 
      2 C          32.1506   24.1332   -3.5114 C.2       0 UNK         0.4864 
      3 O          31.5920   24.9297   -4.2677 O.2       0 UNK        -0.5359 
      4 N          31.8098   23.9877   -2.2247 N.am      1 UNK        -0.4318 
      5 CA         30.7129   24.7003   -1.5609 C.3       1 UNK         0.0824 
      6 C6         30.7922   24.5765   -0.0199 C.3       12 UNK        -0.0944 
      7 S7         32.3684   25.1897    0.6649 S.3       12 UNK        -0.2672 
      8 C8         32.7207   23.9656    1.9693 C.3       12 UNK         0.0333 
      9 C9         31.8411   24.1794    3.1939 C.ar      12 UNK        -0.0807 
     10 C10        32.2890   24.9703    4.2553 C.ar      12 UNK        -0.0894 
     11 C11        31.4774   25.1893    5.3734 C.ar      12 UNK        -0.0804 
     12 C12        30.1989   24.6204    5.4184 C.ar      12 UNK        -0.0824 
     13 C13        29.7455   23.8138    4.3689 C.ar      12 UNK        -0.0762 
     14 C14        30.5814   23.5813    3.2722 C.ar      12 UNK        -0.0782 
     15 C15        28.3658   23.1668    4.4222 C.3       12 UNK         0.0230 
     16 S16        27.0132   24.3133    3.9870 S.3       12 UNK        -0.2608 
     17 C17        27.4642   24.8601    2.2982 C.3       12 UNK        -0.0989 
     18 CA         27.4783   26.3976    2.0971 C.3       5 UNK         0.0716 
     19 N          26.1164   26.9404    2.0597 N.am      5 UNK        -0.4135 
     20 C          25.7794   28.2129    1.8131 C.2       4 UNK         0.5031 
     21 O          26.5921   29.1330    1.7152 O.2       4 UNK        -0.5229 
     22 CA         24.2815   28.4826    1.5864 C.3       4 UNK         0.0329 
     23 CB         23.9220   29.9695    1.7647 C.3       4 UNK        -0.2001 
     24 N          23.9109   28.0574    0.2362 N.am      4 UNK        -0.4303 
     25 C          23.7777   26.7832   -0.1559 C.2       3 UNK         0.5044 
     26 O          23.7862   25.8279    0.6243 O.2       3 UNK        -0.5152 
     27 CA         23.6574   26.5078   -1.6673 C.3       3 UNK         0.0319 
     28 CB         23.5487   27.7775   -2.5439 C.3       3 UNK        -0.2001 
     29 N          24.7540   25.6491   -2.1352 N.am      3 UNK        -0.4354 
     30 C          26.0701   25.9008   -2.0524 C.2       2 UNK         0.4964 
     31 O          26.5579   26.9341   -1.5857 O.2       2 UNK        -0.5047 
     32 CA         27.0005   24.8145   -2.6053 C.3       2 UNK         0.0288 
     33 CB         26.9426   24.7615   -4.1449 C.3       2 UNK        -0.2113 
     34 N          28.3672   25.0950   -2.1706 N.am      2 UNK        -0.4145 
     35 C          29.3463   24.1903   -2.0652 C.2       1 UNK         0.5006 
     36 O          29.1968   22.9905   -2.3154 O.2       1 UNK        -0.5103 
     37 C          28.4218   27.1402    3.0708 C.2       5 UNK         0.5055 
     38 O          29.5795   27.3807    2.7324 O.2       5 UNK        -0.5220 
     39 N          27.8771   27.5689    4.2185 N.am      6 UNK        -0.4450 
     40 CA         28.5625   28.3587    5.2426 C.3       6 UNK         0.0367 
     41 CB         27.6880   28.3992    6.5062 C.3       6 UNK        -0.1929 
     42 C          28.9511   29.7853    4.8012 C.2       6 UNK         0.5070 
     43 O          29.7452   30.4213    5.4926 O.2       6 UNK        -0.5237 
     44 N          28.3884   30.2733    3.6867 N.am      7 UNK        -0.4739 
     45 CA         28.7411   31.5473    3.0566 C.3       7 UNK         0.0276 
     46 CB         27.4479   32.3247    2.7555 C.3       7 UNK        -0.1927 
     47 C          29.5641   31.3466    1.7701 C.2       7 UNK         0.5013 
     48 O          30.0615   32.3334    1.2260 O.2       7 UNK        -0.5193 
     49 N          29.6982   30.0988    1.2938 N.am      8 UNK        -0.4253 
     50 CA         30.4590   29.7444    0.0907 C.3       8 UNK         0.0242 
     51 CB         29.9006   28.4370   -0.4954 C.3       8 UNK        -0.2000 
     52 C          31.9714   29.6201    0.3543 C.2       8 UNK         0.4948 
     53 O          32.7483   29.6216   -0.6017 O.2       8 UNK        -0.5275 
     54 N          32.3620   29.5270    1.6290 N.am      9 UNK        -0.4246 
     55 CA         33.7364   29.5076    2.1170 C.3       9 UNK         0.0261 
     56 CB         34.1365   28.0560    2.4331 C.3       9 UNK        -0.1959 
     57 C          33.8219   30.3950    3.3657 C.2       9 UNK         0.5033 
     58 O          32.7892   30.8293    3.8821 O.2       9 UNK        -0.5390 
     59 N          35.0521   30.6502    3.8314 N.am      10 UNK        -0.4215 
     60 CA         35.3258   31.4223    5.0486 C.3       10 UNK         0.0240 
     61 CB         36.8180   31.7906    5.1001 C.3       10 UNK        -0.1982 
     62 C          34.9038   30.6910    6.3363 C.2       10 UNK         0.4970 
     63 O          34.4605   31.3479    7.2789 O.2       10 UNK        -0.4916 
     64 N          35.0543   29.3576    6.3456 N.am      11 UNK        -0.4279 
     65 CA         34.6667   28.4405    7.4347 C.3       11 UNK         0.1003 
     66 C          35.4276   28.6532    8.7810 C.2       11 UNK         0.5709 
     67 N          36.5834   29.3071    8.7880 N.am      11 UNK        -0.7358 
     68 O          34.9898   28.1889    9.8314 O.2       11 UNK        -0.4999 
     69 C69        33.1226   28.3430    7.6119 C.3       12 UNK        -0.0954 
     70 S70        32.2942   27.7440    6.1007 S.3       12 UNK        -0.2268 
     71 C71        32.0061   26.0042    6.5455 C.3       12 UNK         0.0203 
     72 H72        34.0949   23.8987   -4.4114 H         1 UNK         0.0888 
     73 H73        33.7009   22.6246   -3.2560 H         1 UNK         0.0888 
     74 H74        32.9384   22.6372   -4.8475 H         1 UNK         0.0888 
     75 H75        32.2983   23.3146   -1.6528 H         1 UNK         0.3017 
     76 H76        30.8019   25.7562   -1.8249 H         1 UNK         0.0873 
     77 H77        29.9919   25.1483    0.4505 H         1 UNK         0.0745 
     78 H78        30.6479   23.5363    0.2752 H         1 UNK         0.0745 
     79 H79        32.5957   22.9550    1.5779 H         1 UNK         0.0705 
     80 H80        33.7714   24.0520    2.2502 H         1 UNK         0.0705 
     81 H81        33.2721   25.4183    4.2136 H         1 UNK         0.1334 
     82 H82        29.5604   24.7910    6.2744 H         1 UNK         0.1417 
     83 H83        30.2418   22.9441    2.4682 H         1 UNK         0.1562 
     84 H84        28.1870   22.7815    5.4271 H         1 UNK         0.0748 
     85 H85        28.3227   22.3021    3.7579 H         1 UNK         0.0748 
     86 H86        26.7625   24.4029    1.5982 H         1 UNK         0.0940 
     87 H87        28.4315   24.4511    2.0202 H         1 UNK         0.0940 
     88 H88        27.8801   26.5792    1.0980 H         1 UNK         0.0703 
     89 H89        25.3683   26.2574    2.0598 H         1 UNK         0.3081 
     90 H90        23.7119   27.9057    2.3183 H         1 UNK         0.0719 
     91 H91        24.4354   30.6025    1.0397 H         1 UNK         0.0809 
     92 H92        22.8502   30.1340    1.6533 H         1 UNK         0.0809 
     93 H93        24.2026   30.3210    2.7586 H         1 UNK         0.0809 
     94 H94        23.9362   28.7693   -0.4793 H         1 UNK         0.2990 
     95 H95        22.7367   25.9372   -1.7982 H         1 UNK         0.0690 
     96 H96        23.4107   27.5136   -3.5925 H         1 UNK         0.0788 
     97 H97        24.4392   28.4043   -2.4812 H         1 UNK         0.0788 
     98 H98        22.6896   28.3852   -2.2561 H         1 UNK         0.0788 
     99 H99        24.4663   24.7577   -2.5148 H         1 UNK         0.2993 
    100 H100       26.6821   23.8553   -2.1906 H         1 UNK         0.0949 
    101 H101       27.5920   23.9804   -4.5410 H         1 UNK         0.0767 
    102 H102       25.9331   24.5476   -4.4981 H         1 UNK         0.0767 
    103 H103       27.2514   25.7084   -4.5899 H         1 UNK         0.0767 
    104 H104       28.5173   26.0581   -1.8956 H         1 UNK         0.3013 
    105 H105       26.9141   27.3264    4.4003 H         1 UNK         0.3121 
    106 H106       29.4872   27.8349    5.4864 H         1 UNK         0.0774 
    107 H107       26.7361   28.8988    6.3221 H         1 UNK         0.0815 
    108 H108       28.1901   28.9399    7.3098 H         1 UNK         0.0815 
    109 H109       27.4785   27.3956    6.8769 H         1 UNK         0.0815 
    110 H110       27.7232   29.7022    3.1714 H         1 UNK         0.2987 
    111 H111       29.3513   32.1509    3.7321 H         1 UNK         0.0949 
    112 H112       26.8124   31.7945    2.0454 H         1 UNK         0.0806 
    113 H113       26.8677   32.4952    3.6623 H         1 UNK         0.0806 
    114 H114       27.6706   33.3022    2.3255 H         1 UNK         0.0806 
    115 H115       29.3003   29.3291    1.8185 H         1 UNK         0.3010 
    116 H116       30.3197   30.5318   -0.6532 H         1 UNK         0.0829 
    117 H117       30.1034   27.5882    0.1569 H         1 UNK         0.0813 
    118 H118       28.8227   28.4965   -0.6512 H         1 UNK         0.0813 
    119 H119       30.3594   28.2216   -1.4610 H         1 UNK         0.0813 
    120 H120       31.6630   29.6032    2.3573 H         1 UNK         0.3038 
    121 H121       34.4102   29.9204    1.3633 H         1 UNK         0.0769 
    122 H122       35.1467   27.9932    2.8381 H         1 UNK         0.0811 
    123 H123       33.4594   27.6058    3.1599 H         1 UNK         0.0811 
    124 H124       34.1145   27.4419    1.5334 H         1 UNK         0.0811 
    125 H125       35.8503   30.2778    3.3366 H         1 UNK         0.3204 
    126 H126       34.7502   32.3492    4.9956 H         1 UNK         0.0748 
    127 H127       37.0426   32.3826    5.9887 H         1 UNK         0.0771 
    128 H128       37.4552   30.9058    5.1281 H         1 UNK         0.0771 
    129 H129       37.1090   32.3871    4.2352 H         1 UNK         0.0771 
    130 H130       35.4419   28.9163    5.5261 H         1 UNK         0.2980 
    131 H131       35.0050   27.4571    7.1065 H         1 UNK         0.0545 
    132 H132       37.0750   29.4299    9.6592 H         1 UNK         0.3459 
    133 H133       36.9631   29.6845    7.9352 H         1 UNK         0.3459 
    134 H134       32.8621   27.6754    8.4347 H         1 UNK         0.0616 
    135 H135       32.7031   29.3157    7.8723 H         1 UNK         0.0616 
    136 H136       32.9421   25.5617    6.8893 H         1 UNK         0.0634 
    137 H137       31.3139   25.9646    7.3880 H         1 UNK         0.0634 
@<TRIPOS>BOND
     1    1    2 1    
     2    1   72 1    
     3    1   73 1    
     4    1   74 1    
     5    2    3 2    
     6    2    4 am   BACKBONE|DICT|INTERRES
     7    4    5 1    
     8    4   75 1    
     9    5    6 1    
    10    5   35 1    
    11    5   76 1    
    12    6    7 1    
    13    6   77 1    
    14    6   78 1    
    15    7    8 1    
    16    8    9 1    
    17    8   79 1    
    18    8   80 1    
    19    9   10 ar   
    20    9   14 ar   
    21   10   11 ar   
    22   10   81 1    
    23   11   12 ar   
    24   11   71 1    
    25   12   13 ar   
    26   12   82 1    
    27   13   14 ar   
    28   13   15 1    
    29   14   83 1    
    30   15   16 1    
    31   15   84 1    
    32   15   85 1    
    33   16   17 1    
    34   17   18 1    
    35   17   86 1    
    36   17   87 1    
    37   18   19 1    
    38   18   37 1    
    39   18   88 1    
    40   19   20 am   BACKBONE|DICT|INTERRES
    41   19   89 1    
    42   20   21 2    
    43   20   22 1    
    44   22   23 1    
    45   22   24 1    
    46   22   90 1    
    47   23   91 1    
    48   23   92 1    
    49   23   93 1    
    50   24   25 am   BACKBONE|DICT|INTERRES
    51   24   94 1    
    52   25   26 2    
    53   25   27 1    
    54   27   28 1    
    55   27   29 1    
    56   27   95 1    
    57   28   96 1    
    58   28   97 1    
    59   28   98 1    
    60   29   30 am   BACKBONE|DICT|INTERRES
    61   29   99 1    
    62   30   31 2    
    63   30   32 1    
    64   32   33 1    
    65   32   34 1    
    66   32  100 1    
    67   33  101 1    
    68   33  102 1    
    69   33  103 1    
    70   34   35 am   BACKBONE|DICT|INTERRES
    71   34  104 1    
    72   35   36 2    
    73   37   38 2    
    74   37   39 am   BACKBONE|DICT|INTERRES
    75   39   40 1    
    76   39  105 1    
    77   40   41 1    
    78   40   42 1    
    79   40  106 1    
    80   41  107 1    
    81   41  108 1    
    82   41  109 1    
    83   42   43 2    
    84   42   44 am   BACKBONE|DICT|INTERRES
    85   44   45 1    
    86   44  110 1    
    87   45   46 1    
    88   45   47 1    
    89   45  111 1    
    90   46  112 1    
    91   46  113 1    
    92   46  114 1    
    93   47   48 2    
    94   47   49 am   BACKBONE|DICT|INTERRES
    95   49   50 1    
    96   49  115 1    
    97   50   51 1    
    98   50   52 1    
    99   50  116 1    
   100   51  117 1    
   101   51  118 1    
   102   51  119 1    
   103   52   53 2    
   104   52   54 am   BACKBONE|DICT|INTERRES
   105   54   55 1    
   106   54  120 1    
   107   55   56 1    
   108   55   57 1    
   109   55  121 1    
   110   56  122 1    
   111   56  123 1    
   112   56  124 1    
   113   57   58 2    
   114   57   59 am   BACKBONE|DICT|INTERRES
   115   59   60 1    
   116   59  125 1    
   117   60   61 1    
   118   60   62 1    
   119   60  126 1    
   120   61  127 1    
   121   61  128 1    
   122   61  129 1    
   123   62   63 2    
   124   62   64 am   BACKBONE|DICT|INTERRES
   125   64   65 1    
   126   64  130 1    
   127   65   66 1    
   128   65   69 1    
   129   65  131 1    
   130   66   67 am   BACKBONE|DICT|INTERRES
   131   66   68 2    
   132   67  132 1    
   133   67  133 1    
   134   69   70 1    
   135   69  134 1    
   136   69  135 1    
   137   70   71 1    
   138   71  136 1    
   139   71  137 1    
@<TRIPOS>SUBSTRUCTURE
     1 UNK         1 GROUP             0       ****    0 ROOT    
