@<TRIPOS>MOLECULE
3R136
137   139    1
SMALL
USER_CHARGES


@<TRIPOS>ATOM
      1 CA         30.0327   19.9747    0.2331 C.3       0 UNK        -0.1979 
      2 C          29.9234   20.9267   -0.9487 C.2       0 UNK         0.4864 
      3 O          30.2202   20.5346   -2.0778 O.2       0 UNK        -0.5359 
      4 N          29.4884   22.1663   -0.6910 N.am      1 UNK        -0.4318 
      5 CA         29.3124   23.2355   -1.6840 C.3       1 UNK         0.0824 
      6 C6         30.2726   24.4400   -1.4568 C.3       12 UNK        -0.0944 
      7 S7         32.0468   23.9932   -1.4475 S.3       12 UNK        -0.2672 
      8 C8         32.7480   25.1737   -0.2283 C.3       12 UNK         0.0333 
      9 C9         32.3899   24.9334    1.2430 C.ar      12 UNK        -0.0807 
     10 C10        32.9457   25.7622    2.2246 C.ar      12 UNK        -0.0894 
     11 C11        32.6178   25.5902    3.5750 C.ar      12 UNK        -0.0804 
     12 C12        31.6939   24.6072    3.9449 C.ar      12 UNK        -0.0824 
     13 C13        31.1191   23.7847    2.9748 C.ar      12 UNK        -0.0762 
     14 C14        31.5088   23.9259    1.6442 C.ar      12 UNK        -0.0782 
     15 C15        30.0504   22.7627    3.3313 C.3       12 UNK         0.0230 
     16 S16        28.4786   23.1372    2.4765 S.3       12 UNK        -0.2608 
     17 C17        27.7792   24.4482    3.5356 C.3       12 UNK        -0.0989 
     18 CA         28.2421   25.8790    3.1602 C.3       5 UNK         0.0716 
     19 N          27.7890   26.3162    1.8332 N.am      5 UNK        -0.4135 
     20 C          28.1768   27.4726    1.2667 C.2       4 UNK         0.5031 
     21 O          29.0211   28.2140    1.7741 O.2       4 UNK        -0.5229 
     22 CA         27.5229   27.9179   -0.0561 C.3       4 UNK         0.0329 
     23 CB         28.5247   27.8831   -1.2174 C.3       4 UNK        -0.2001 
     24 N          26.3270   27.1525   -0.4080 N.am      4 UNK        -0.4303 
     25 C          25.1218   27.3575    0.1461 C.2       3 UNK         0.5044 
     26 O          24.8958   28.2462    0.9677 O.2       3 UNK        -0.5152 
     27 CA         23.9647   26.4283   -0.2718 C.3       3 UNK         0.0319 
     28 CB         23.0008   27.1638   -1.2174 C.3       3 UNK        -0.2001 
     29 N          24.3808   25.1724   -0.9022 N.am      3 UNK        -0.4354 
     30 C          25.1199   24.2174   -0.3225 C.2       2 UNK         0.4964 
     31 O          25.5539   24.2977    0.8276 O.2       2 UNK        -0.5047 
     32 CA         25.4688   22.9807   -1.1738 C.3       2 UNK         0.0288 
     33 CB         24.8266   22.9702   -2.5812 C.3       2 UNK        -0.2113 
     34 N          26.9197   22.7906   -1.2767 N.am      2 UNK        -0.4145 
     35 C          27.8298   23.6743   -1.7227 C.2       1 UNK         0.5006 
     36 O          27.5340   24.7962   -2.1403 O.2       1 UNK        -0.5103 
     37 C          27.7865   26.8898    4.2335 C.2       5 UNK         0.5055 
     38 O          26.5858   27.1395    4.3566 O.2       5 UNK        -0.5220 
     39 N          28.7593   27.4622    4.9578 N.am      6 UNK        -0.4450 
     40 CA         28.6210   28.5357    5.9529 C.3       6 UNK         0.0367 
     41 CB         27.7109   28.1100    7.1251 C.3       6 UNK        -0.1929 
     42 C          28.2261   29.9054    5.3591 C.2       6 UNK         0.5070 
     43 O          27.8439   30.7957    6.1202 O.2       6 UNK        -0.5237 
     44 N          28.3423   30.0714    4.0339 N.am      7 UNK        -0.4739 
     45 CA         28.0899   31.3288    3.3221 C.3       7 UNK         0.0276 
     46 CB         26.8095   31.1971    2.4831 C.3       7 UNK        -0.1927 
     47 C          29.2852   31.7571    2.4549 C.2       7 UNK         0.5013 
     48 O          29.4585   32.9576    2.2381 O.2       7 UNK        -0.5193 
     49 N          30.0976   30.7961    1.9886 N.am      8 UNK        -0.4253 
     50 CA         31.3768   31.0199    1.3101 C.3       8 UNK         0.0242 
     51 CB         31.9452   29.6612    0.8641 C.3       8 UNK        -0.2000 
     52 C          32.3889   31.7231    2.2276 C.2       8 UNK         0.4948 
     53 O          32.3724   31.4912    3.4374 O.2       8 UNK        -0.5275 
     54 N          33.2974   32.5144    1.6406 N.am      9 UNK        -0.4246 
     55 CA         34.3113   33.3167    2.3457 C.3       9 UNK         0.0261 
     56 CB         35.1282   34.1114    1.3133 C.3       9 UNK        -0.1959 
     57 C          35.2523   32.5285    3.2816 C.2       9 UNK         0.5033 
     58 O          35.8447   33.1241    4.1824 O.2       9 UNK        -0.5390 
     59 N          35.3605   31.2120    3.0647 N.am      10 UNK        -0.4215 
     60 CA         36.0897   30.2697    3.9098 C.3       10 UNK         0.0240 
     61 CB         36.2829   28.9587    3.1285 C.3       10 UNK        -0.1982 
     62 C          35.4227   29.9869    5.2715 C.2       10 UNK         0.4970 
     63 O          36.1228   29.5095    6.1662 O.2       10 UNK        -0.4916 
     64 N          34.1138   30.2443    5.4186 N.am      11 UNK        -0.4279 
     65 CA         33.3470   29.8831    6.6253 C.3       11 UNK         0.1003 
     66 C          32.1154   30.7754    6.9464 C.2       11 UNK         0.5709 
     67 N          31.6401   31.6319    6.0549 N.am      11 UNK        -0.7358 
     68 O          31.5899   30.7069    8.0551 O.2       11 UNK        -0.4999 
     69 C69        33.0055   28.3683    6.6783 C.3       12 UNK        -0.0954 
     70 S70        32.1245   27.7608    5.1973 S.3       12 UNK        -0.2268 
     71 C71        33.2593   26.4574    4.6439 C.3       12 UNK         0.0203 
     72 H72        29.5829   19.0134   -0.0143 H         1 UNK         0.0888 
     73 H73        31.0800   19.8071    0.4829 H         1 UNK         0.0888 
     74 H74        29.5276   20.3626    1.1173 H         1 UNK         0.0888 
     75 H75        29.2253   22.4138    0.2551 H         1 UNK         0.3017 
     76 H76        29.5172   22.8461   -2.6832 H         1 UNK         0.0873 
     77 H77        30.1456   25.1721   -2.2558 H         1 UNK         0.0745 
     78 H78        30.0222   24.9527   -0.5265 H         1 UNK         0.0745 
     79 H79        32.4398   26.1829   -0.5059 H         1 UNK         0.0705 
     80 H80        33.8341   25.1460   -0.3261 H         1 UNK         0.0705 
     81 H81        33.6393   26.5407    1.9372 H         1 UNK         0.1334 
     82 H82        31.4164   24.4947    4.9842 H         1 UNK         0.1417 
     83 H83        31.0827   23.2572    0.9203 H         1 UNK         0.1562 
     84 H84        29.8888   22.7136    4.4092 H         1 UNK         0.0748 
     85 H85        30.3939   21.7729    3.0282 H         1 UNK         0.0748 
     86 H86        28.0331   24.2199    4.5727 H         1 UNK         0.0940 
     87 H87        26.6909   24.3802    3.4769 H         1 UNK         0.0940 
     88 H88        29.3323   25.8863    3.1332 H         1 UNK         0.0703 
     89 H89        27.0680   25.7549    1.3954 H         1 UNK         0.3081 
     90 H90        27.2294   28.9607    0.0674 H         1 UNK         0.0719 
     91 H91        29.3673   28.5467   -1.0255 H         1 UNK         0.0809 
     92 H92        28.0651   28.2080   -2.1509 H         1 UNK         0.0809 
     93 H93        28.9252   26.8858   -1.3711 H         1 UNK         0.0809 
     94 H94        26.4477   26.3936   -1.0697 H         1 UNK         0.2990 
     95 H95        23.4197   26.1711    0.6388 H         1 UNK         0.0690 
     96 H96        22.1248   26.5559   -1.4449 H         1 UNK         0.0788 
     97 H97        23.4831   27.4271   -2.1597 H         1 UNK         0.0788 
     98 H98        22.6404   28.0896   -0.7663 H         1 UNK         0.0788 
     99 H99        24.0942   25.0314   -1.8603 H         1 UNK         0.2993 
    100 H100       25.0796   22.1218   -0.6250 H         1 UNK         0.0949 
    101 H101       23.7385   23.0238   -2.5226 H         1 UNK         0.0767 
    102 H102       25.1723   23.7987   -3.2010 H         1 UNK         0.0767 
    103 H103       25.0671   22.0475   -3.1096 H         1 UNK         0.0767 
    104 H104       27.2650   21.9051   -0.9356 H         1 UNK         0.3013 
    105 H105       29.7173   27.2049    4.7534 H         1 UNK         0.3121 
    106 H106       29.6171   28.6850    6.3700 H         1 UNK         0.0774 
    107 H107       27.7645   28.8316    7.9411 H         1 UNK         0.0815 
    108 H108       26.6650   28.0418    6.8254 H         1 UNK         0.0815 
    109 H109       28.0102   27.1437    7.5305 H         1 UNK         0.0815 
    110 H110       28.6451   29.2848    3.4704 H         1 UNK         0.2987 
    111 H111       27.9360   32.1394    4.0378 H         1 UNK         0.0949 
    112 H112       25.9410   31.0177    3.1169 H         1 UNK         0.0806 
    113 H113       26.6151   32.1079    1.9151 H         1 UNK         0.0806 
    114 H114       26.8751   30.3746    1.7741 H         1 UNK         0.0806 
    115 H115       29.8364   29.8240    2.1257 H         1 UNK         0.3010 
    116 H116       31.1933   31.6437    0.4331 H         1 UNK         0.0829 
    117 H117       31.2655   29.1484    0.1855 H         1 UNK         0.0813 
    118 H118       32.8936   29.7805    0.3390 H         1 UNK         0.0813 
    119 H119       32.1215   29.0007    1.7152 H         1 UNK         0.0813 
    120 H120       33.2591   32.6282    0.6374 H         1 UNK         0.3038 
    121 H121       33.7722   34.0288    2.9739 H         1 UNK         0.0769 
    122 H122       35.6629   33.4522    0.6283 H         1 UNK         0.0811 
    123 H123       35.8709   34.7427    1.8036 H         1 UNK         0.0811 
    124 H124       34.4910   34.7686    0.7212 H         1 UNK         0.0811 
    125 H125       34.8312   30.8204    2.3003 H         1 UNK         0.3204 
    126 H126       37.0753   30.6927    4.1158 H         1 UNK         0.0748 
    127 H127       36.8220   28.2209    3.7247 H         1 UNK         0.0771 
    128 H128       35.3285   28.5146    2.8436 H         1 UNK         0.0771 
    129 H129       36.8617   29.1213    2.2190 H         1 UNK         0.0771 
    130 H130       33.5812   30.6490    4.6542 H         1 UNK         0.2980 
    131 H131       34.0046   30.0796    7.4744 H         1 UNK         0.0545 
    132 H132       31.9843   31.6504    5.0958 H         1 UNK         0.3459 
    133 H133       30.8492   32.2007    6.3080 H         1 UNK         0.3459 
    134 H134       32.4037   28.1319    7.5576 H         1 UNK         0.0616 
    135 H135       33.9283   27.8010    6.8054 H         1 UNK         0.0616 
    136 H136       34.1810   26.9113    4.2785 H         1 UNK         0.0634 
    137 H137       33.5371   25.8309    5.4929 H         1 UNK         0.0634 
@<TRIPOS>BOND
     1    1    2 1    
     2    1   72 1    
     3    1   73 1    
     4    1   74 1    
     5    2    3 2    
     6    2    4 am   BACKBONE|DICT|INTERRES
     7    4    5 1    
     8    4   75 1    
     9    5    6 1    
    10    5   35 1    
    11    5   76 1    
    12    6    7 1    
    13    6   77 1    
    14    6   78 1    
    15    7    8 1    
    16    8    9 1    
    17    8   79 1    
    18    8   80 1    
    19    9   10 ar   
    20    9   14 ar   
    21   10   11 ar   
    22   10   81 1    
    23   11   12 ar   
    24   11   71 1    
    25   12   13 ar   
    26   12   82 1    
    27   13   14 ar   
    28   13   15 1    
    29   14   83 1    
    30   15   16 1    
    31   15   84 1    
    32   15   85 1    
    33   16   17 1    
    34   17   18 1    
    35   17   86 1    
    36   17   87 1    
    37   18   19 1    
    38   18   37 1    
    39   18   88 1    
    40   19   20 am   BACKBONE|DICT|INTERRES
    41   19   89 1    
    42   20   21 2    
    43   20   22 1    
    44   22   23 1    
    45   22   24 1    
    46   22   90 1    
    47   23   91 1    
    48   23   92 1    
    49   23   93 1    
    50   24   25 am   BACKBONE|DICT|INTERRES
    51   24   94 1    
    52   25   26 2    
    53   25   27 1    
    54   27   28 1    
    55   27   29 1    
    56   27   95 1    
    57   28   96 1    
    58   28   97 1    
    59   28   98 1    
    60   29   30 am   BACKBONE|DICT|INTERRES
    61   29   99 1    
    62   30   31 2    
    63   30   32 1    
    64   32   33 1    
    65   32   34 1    
    66   32  100 1    
    67   33  101 1    
    68   33  102 1    
    69   33  103 1    
    70   34   35 am   BACKBONE|DICT|INTERRES
    71   34  104 1    
    72   35   36 2    
    73   37   38 2    
    74   37   39 am   BACKBONE|DICT|INTERRES
    75   39   40 1    
    76   39  105 1    
    77   40   41 1    
    78   40   42 1    
    79   40  106 1    
    80   41  107 1    
    81   41  108 1    
    82   41  109 1    
    83   42   43 2    
    84   42   44 am   BACKBONE|DICT|INTERRES
    85   44   45 1    
    86   44  110 1    
    87   45   46 1    
    88   45   47 1    
    89   45  111 1    
    90   46  112 1    
    91   46  113 1    
    92   46  114 1    
    93   47   48 2    
    94   47   49 am   BACKBONE|DICT|INTERRES
    95   49   50 1    
    96   49  115 1    
    97   50   51 1    
    98   50   52 1    
    99   50  116 1    
   100   51  117 1    
   101   51  118 1    
   102   51  119 1    
   103   52   53 2    
   104   52   54 am   BACKBONE|DICT|INTERRES
   105   54   55 1    
   106   54  120 1    
   107   55   56 1    
   108   55   57 1    
   109   55  121 1    
   110   56  122 1    
   111   56  123 1    
   112   56  124 1    
   113   57   58 2    
   114   57   59 am   BACKBONE|DICT|INTERRES
   115   59   60 1    
   116   59  125 1    
   117   60   61 1    
   118   60   62 1    
   119   60  126 1    
   120   61  127 1    
   121   61  128 1    
   122   61  129 1    
   123   62   63 2    
   124   62   64 am   BACKBONE|DICT|INTERRES
   125   64   65 1    
   126   64  130 1    
   127   65   66 1    
   128   65   69 1    
   129   65  131 1    
   130   66   67 am   BACKBONE|DICT|INTERRES
   131   66   68 2    
   132   67  132 1    
   133   67  133 1    
   134   69   70 1    
   135   69  134 1    
   136   69  135 1    
   137   70   71 1    
   138   71  136 1    
   139   71  137 1    
@<TRIPOS>SUBSTRUCTURE
     1 UNK         1 GROUP             0       ****    0 ROOT    
