@<TRIPOS>MOLECULE
3R136
137   139    1
SMALL
USER_CHARGES


@<TRIPOS>ATOM
      1 CA         32.6785   21.2912    4.3850 C.3       0 UNK        -0.1979 
      2 C          31.6748   21.2068    3.2446 C.2       0 UNK         0.4864 
      3 O          31.5254   20.1424    2.6433 O.2       0 UNK        -0.5359 
      4 N          31.0016   22.3262    2.9472 N.am      1 UNK        -0.4318 
      5 CA         30.0390   22.5147    1.8539 C.3       1 UNK         0.0824 
      6 C6         28.7530   21.6515    1.9687 C.3       12 UNK        -0.0944 
      7 S7         27.8051   22.0138    3.4879 S.3       12 UNK        -0.2672 
      8 C8         26.7387   23.3923    2.9326 C.3       12 UNK         0.0333 
      9 C9         26.9540   24.7006    3.6930 C.ar      12 UNK        -0.0807 
     10 C10        28.2278   25.1171    4.0959 C.ar      12 UNK        -0.0894 
     11 C11        28.4118   26.3512    4.7245 C.ar      12 UNK        -0.0804 
     12 C12        27.3072   27.1703    4.9718 C.ar      12 UNK        -0.0824 
     13 C13        26.0313   26.7802    4.5556 C.ar      12 UNK        -0.0762 
     14 C14        25.8610   25.5411    3.9301 C.ar      12 UNK        -0.0782 
     15 C15        24.8476   27.7196    4.7373 C.3       12 UNK         0.0230 
     16 S16        24.9925   29.2020    3.6834 S.3       12 UNK        -0.2608 
     17 C17        24.8410   28.5136    1.9944 C.3       12 UNK        -0.0989 
     18 CA         26.2074   28.1357    1.3527 C.3       5 UNK         0.0716 
     19 N          26.0929   27.3291    0.1447 N.am      5 UNK        -0.4135 
     20 C          25.5926   26.0973    0.0111 C.2       4 UNK         0.5031 
     21 O          24.9403   25.5060    0.8703 O.2       4 UNK        -0.5229 
     22 CA         25.9170   25.3806   -1.3130 C.3       4 UNK         0.0329 
     23 CB         24.8530   25.6987   -2.3759 C.3       4 UNK        -0.2001 
     24 N          27.2532   25.6927   -1.8432 N.am      4 UNK        -0.4303 
     25 C          28.4043   25.4677   -1.1930 C.2       3 UNK         0.5044 
     26 O          28.4738   24.9830   -0.0591 O.2       3 UNK        -0.5152 
     27 CA         29.6966   25.8724   -1.9158 C.3       3 UNK         0.0319 
     28 CB         29.9498   27.3840   -1.7775 C.3       3 UNK        -0.2001 
     29 N          30.7805   25.1439   -1.2709 N.am      3 UNK        -0.4354 
     30 C          31.6937   24.3674   -1.8630 C.2       2 UNK         0.4964 
     31 O          31.8849   24.3286   -3.0786 O.2       2 UNK        -0.5047 
     32 CA         32.5153   23.4531   -0.9316 C.3       2 UNK         0.0288 
     33 CB         33.8902   24.0764   -0.6402 C.3       2 UNK        -0.2113 
     34 N          31.8297   23.1871    0.3387 N.am      2 UNK        -0.4145 
     35 C          30.7319   22.4275    0.4783 C.2       1 UNK         0.5006 
     36 O          30.2674   21.7246   -0.4219 O.2       1 UNK        -0.5103 
     37 C          27.0586   29.3580    0.9595 C.2       5 UNK         0.5055 
     38 O          27.1844   29.6597   -0.2321 O.2       5 UNK        -0.5220 
     39 N          27.6286   30.0315    1.9612 N.am      6 UNK        -0.4450 
     40 CA         28.3981   31.2696    1.8299 C.3       6 UNK         0.0367 
     41 CB         29.7653   31.0297    1.1578 C.3       6 UNK        -0.1929 
     42 C          28.5928   31.9120    3.2061 C.2       6 UNK         0.5070 
     43 O          28.5574   33.1373    3.3114 O.2       6 UNK        -0.5237 
     44 N          28.8213   31.0733    4.2295 N.am      7 UNK        -0.4739 
     45 CA         29.0798   31.3788    5.6456 C.3       7 UNK         0.0276 
     46 CB         27.9164   32.1610    6.2844 C.3       7 UNK        -0.1927 
     47 C          30.4325   32.0664    5.9057 C.2       7 UNK         0.5013 
     48 O          31.1291   31.6905    6.8495 O.2       7 UNK        -0.5193 
     49 N          30.8077   33.0279    5.0548 N.am      8 UNK        -0.4253 
     50 CA         32.0717   33.7656    5.0747 C.3       8 UNK         0.0242 
     51 CB         31.8878   35.0757    4.2859 C.3       8 UNK        -0.2000 
     52 C          33.2499   32.9202    4.5493 C.2       8 UNK         0.4948 
     53 O          33.8693   33.2816    3.5472 O.2       8 UNK        -0.5275 
     54 N          33.5230   31.7946    5.2239 N.am      9 UNK        -0.4246 
     55 CA         34.6291   30.8373    5.0516 C.3       9 UNK         0.0261 
     56 CB         35.9842   31.5139    5.3346 C.3       9 UNK        -0.1959 
     57 C          34.6825   30.0711    3.7142 C.2       9 UNK         0.5033 
     58 O          35.1111   28.9165    3.7140 O.2       9 UNK        -0.5390 
     59 N          34.2562   30.6966    2.6095 N.am      10 UNK        -0.4215 
     60 CA         34.3193   30.1850    1.2333 C.3       10 UNK         0.0240 
     61 CB         33.7655   31.2541    0.2775 C.3       10 UNK        -0.1982 
     62 C          33.6098   28.8383    0.9969 C.2       10 UNK         0.4970 
     63 O          34.0024   28.1041    0.0897 O.2       10 UNK        -0.4916 
     64 N          32.5962   28.5362    1.8150 N.am      11 UNK        -0.4279 
     65 CA         31.9000   27.2448    1.8510 C.3       11 UNK         0.1003 
     66 C          32.6764   26.1041    2.5705 C.2       11 UNK         0.5709 
     67 N          33.8100   26.3527    3.2139 N.am      11 UNK        -0.7358 
     68 O          32.2415   24.9564    2.5249 O.2       11 UNK        -0.4999 
     69 C69        30.4540   27.3957    2.3867 C.3       12 UNK        -0.0954 
     70 S70        30.3680   28.1828    4.0351 S.3       12 UNK        -0.2268 
     71 C71        29.8107   26.8154    5.0994 C.3       12 UNK         0.0203 
     72 H72        32.7350   22.2955    4.8051 H         1 UNK         0.0888 
     73 H73        32.3977   20.6046    5.1832 H         1 UNK         0.0888 
     74 H74        33.6720   21.0165    4.0315 H         1 UNK         0.0888 
     75 H75        31.2448   23.1771    3.4386 H         1 UNK         0.3017 
     76 H76        29.7193   23.5551    1.9201 H         1 UNK         0.0873 
     77 H77        28.1021   21.8083    1.1066 H         1 UNK         0.0745 
     78 H78        28.9998   20.5890    1.9605 H         1 UNK         0.0745 
     79 H79        26.8942   23.5937    1.8721 H         1 UNK         0.0705 
     80 H80        25.7011   23.0698    3.0297 H         1 UNK         0.0705 
     81 H81        29.0864   24.4924    3.9026 H         1 UNK         0.1334 
     82 H82        27.4463   28.1311    5.4485 H         1 UNK         0.1417 
     83 H83        24.8779   25.2463    3.5881 H         1 UNK         0.1562 
     84 H84        24.7968   28.0321    5.7812 H         1 UNK         0.0748 
     85 H85        23.9053   27.2129    4.5228 H         1 UNK         0.0748 
     86 H86        24.3107   29.2331    1.3678 H         1 UNK         0.0940 
     87 H87        24.1870   27.6438    2.0530 H         1 UNK         0.0940 
     88 H88        26.7954   27.5447    2.0554 H         1 UNK         0.0703 
     89 H89        26.5780   27.7491   -0.6397 H         1 UNK         0.3081 
     90 H90        25.8900   24.3072   -1.1135 H         1 UNK         0.0719 
     91 H91        24.8537   26.7552   -2.6469 H         1 UNK         0.0809 
     92 H92        25.0124   25.1176   -3.2845 H         1 UNK         0.0809 
     93 H93        23.8537   25.4567   -2.0109 H         1 UNK         0.0809 
     94 H94        27.2894   26.0957   -2.7688 H         1 UNK         0.2990 
     95 H95        29.6192   25.5979   -2.9700 H         1 UNK         0.0690 
     96 H96        29.1775   27.9605   -2.2881 H         1 UNK         0.0788 
     97 H97        30.9075   27.6657   -2.2156 H         1 UNK         0.0788 
     98 H98        29.9547   27.7026   -0.7348 H         1 UNK         0.0788 
     99 H99        30.6400   25.0231   -0.2772 H         1 UNK         0.2993 
    100 H100       32.6649   22.5019   -1.4471 H         1 UNK         0.0949 
    101 H101       34.4939   23.4284   -0.0045 H         1 UNK         0.0767 
    102 H102       34.4484   24.2357   -1.5637 H         1 UNK         0.0767 
    103 H103       33.8001   25.0442   -0.1448 H         1 UNK         0.0767 
    104 H104       32.1374   23.7251    1.1460 H         1 UNK         0.3013 
    105 H105       27.3760   29.7678    2.9049 H         1 UNK         0.3121 
    106 H106       27.8204   31.9652    1.2174 H         1 UNK         0.0774 
    107 H107       30.3041   31.9706    1.0394 H         1 UNK         0.0815 
    108 H108       30.3965   30.3695    1.7503 H         1 UNK         0.0815 
    109 H109       29.6627   30.5938    0.1644 H         1 UNK         0.0815 
    110 H110       28.9597   30.0983    3.9961 H         1 UNK         0.2987 
    111 H111       29.1306   30.4105    6.1471 H         1 UNK         0.0949 
    112 H112       27.8120   33.1607    5.8620 H         1 UNK         0.0806 
    113 H113       26.9686   31.6394    6.1504 H         1 UNK         0.0806 
    114 H114       28.0726   32.2795    7.3574 H         1 UNK         0.0806 
    115 H115       30.1507   33.2586    4.3135 H         1 UNK         0.3010 
    116 H116       32.3027   34.0297    6.1090 H         1 UNK         0.0829 
    117 H117       31.0942   35.6883    4.7141 H         1 UNK         0.0813 
    118 H118       32.8002   35.6736    4.3006 H         1 UNK         0.0813 
    119 H119       31.6375   34.8858    3.2413 H         1 UNK         0.0813 
    120 H120       32.8840   31.5776    5.9852 H         1 UNK         0.3038 
    121 H121       34.4754   30.0816    5.8237 H         1 UNK         0.0769 
    122 H122       36.2111   32.2918    4.6047 H         1 UNK         0.0811 
    123 H123       36.7980   30.7882    5.2976 H         1 UNK         0.0811 
    124 H124       36.0016   31.9681    6.3253 H         1 UNK         0.0811 
    125 H125       33.9873   31.6727    2.7276 H         1 UNK         0.3204 
    126 H126       35.3745   30.0319    0.9991 H         1 UNK         0.0748 
    127 H127       33.8214   30.9208   -0.7599 H         1 UNK         0.0771 
    128 H128       32.7213   31.4831    0.4914 H         1 UNK         0.0771 
    129 H129       34.3329   32.1824    0.3489 H         1 UNK         0.0771 
    130 H130       32.3628   29.1803    2.5551 H         1 UNK         0.2980 
    131 H131       31.8088   26.9055    0.8181 H         1 UNK         0.0545 
    132 H132       34.2915   25.5910    3.6621 H         1 UNK         0.3459 
    133 H133       34.1929   27.2916    3.2757 H         1 UNK         0.3459 
    134 H134       29.8769   28.0146    1.6999 H         1 UNK         0.0616 
    135 H135       29.9439   26.4324    2.3898 H         1 UNK         0.0616 
    136 H136       29.8145   27.1507    6.1374 H         1 UNK         0.0634 
    137 H137       30.5285   25.9960    5.0360 H         1 UNK         0.0634 
@<TRIPOS>BOND
     1    1    2 1    
     2    1   72 1    
     3    1   73 1    
     4    1   74 1    
     5    2    3 2    
     6    2    4 am   BACKBONE|DICT|INTERRES
     7    4    5 1    
     8    4   75 1    
     9    5    6 1    
    10    5   35 1    
    11    5   76 1    
    12    6    7 1    
    13    6   77 1    
    14    6   78 1    
    15    7    8 1    
    16    8    9 1    
    17    8   79 1    
    18    8   80 1    
    19    9   10 ar   
    20    9   14 ar   
    21   10   11 ar   
    22   10   81 1    
    23   11   12 ar   
    24   11   71 1    
    25   12   13 ar   
    26   12   82 1    
    27   13   14 ar   
    28   13   15 1    
    29   14   83 1    
    30   15   16 1    
    31   15   84 1    
    32   15   85 1    
    33   16   17 1    
    34   17   18 1    
    35   17   86 1    
    36   17   87 1    
    37   18   19 1    
    38   18   37 1    
    39   18   88 1    
    40   19   20 am   BACKBONE|DICT|INTERRES
    41   19   89 1    
    42   20   21 2    
    43   20   22 1    
    44   22   23 1    
    45   22   24 1    
    46   22   90 1    
    47   23   91 1    
    48   23   92 1    
    49   23   93 1    
    50   24   25 am   BACKBONE|DICT|INTERRES
    51   24   94 1    
    52   25   26 2    
    53   25   27 1    
    54   27   28 1    
    55   27   29 1    
    56   27   95 1    
    57   28   96 1    
    58   28   97 1    
    59   28   98 1    
    60   29   30 am   BACKBONE|DICT|INTERRES
    61   29   99 1    
    62   30   31 2    
    63   30   32 1    
    64   32   33 1    
    65   32   34 1    
    66   32  100 1    
    67   33  101 1    
    68   33  102 1    
    69   33  103 1    
    70   34   35 am   BACKBONE|DICT|INTERRES
    71   34  104 1    
    72   35   36 2    
    73   37   38 2    
    74   37   39 am   BACKBONE|DICT|INTERRES
    75   39   40 1    
    76   39  105 1    
    77   40   41 1    
    78   40   42 1    
    79   40  106 1    
    80   41  107 1    
    81   41  108 1    
    82   41  109 1    
    83   42   43 2    
    84   42   44 am   BACKBONE|DICT|INTERRES
    85   44   45 1    
    86   44  110 1    
    87   45   46 1    
    88   45   47 1    
    89   45  111 1    
    90   46  112 1    
    91   46  113 1    
    92   46  114 1    
    93   47   48 2    
    94   47   49 am   BACKBONE|DICT|INTERRES
    95   49   50 1    
    96   49  115 1    
    97   50   51 1    
    98   50   52 1    
    99   50  116 1    
   100   51  117 1    
   101   51  118 1    
   102   51  119 1    
   103   52   53 2    
   104   52   54 am   BACKBONE|DICT|INTERRES
   105   54   55 1    
   106   54  120 1    
   107   55   56 1    
   108   55   57 1    
   109   55  121 1    
   110   56  122 1    
   111   56  123 1    
   112   56  124 1    
   113   57   58 2    
   114   57   59 am   BACKBONE|DICT|INTERRES
   115   59   60 1    
   116   59  125 1    
   117   60   61 1    
   118   60   62 1    
   119   60  126 1    
   120   61  127 1    
   121   61  128 1    
   122   61  129 1    
   123   62   63 2    
   124   62   64 am   BACKBONE|DICT|INTERRES
   125   64   65 1    
   126   64  130 1    
   127   65   66 1    
   128   65   69 1    
   129   65  131 1    
   130   66   67 am   BACKBONE|DICT|INTERRES
   131   66   68 2    
   132   67  132 1    
   133   67  133 1    
   134   69   70 1    
   135   69  134 1    
   136   69  135 1    
   137   70   71 1    
   138   71  136 1    
   139   71  137 1    
@<TRIPOS>SUBSTRUCTURE
     1 UNK         1 GROUP             0       ****    0 ROOT    
