@<TRIPOS>MOLECULE
3R136
137   139    1
SMALL
USER_CHARGES


@<TRIPOS>ATOM
      1 CA         28.2882   20.8952   -2.1277 C.3       0 UNK        -0.1979 
      2 C          29.3772   21.8520   -1.6665 C.2       0 UNK         0.4864 
      3 O          30.5414   21.6751   -2.0261 O.2       0 UNK        -0.5359 
      4 N          29.0015   22.8747   -0.8895 N.am      1 UNK        -0.4318 
      5 CA         29.9016   23.8980   -0.3319 C.3       1 UNK         0.0824 
      6 C6         29.5375   24.2387    1.1366 C.3       12 UNK        -0.0944 
      7 S7         29.5259   22.7598    2.2047 S.3       12 UNK        -0.2672 
      8 C8         30.9269   23.0893    3.3203 C.3       12 UNK         0.0333 
      9 C9         30.5762   24.1088    4.3957 C.ar      12 UNK        -0.0807 
     10 C10        31.3227   25.2826    4.5356 C.ar      12 UNK        -0.0894 
     11 C11        31.0223   26.1979    5.5503 C.ar      12 UNK        -0.0804 
     12 C12        29.9539   25.9437    6.4164 C.ar      12 UNK        -0.0824 
     13 C13        29.1939   24.7778    6.2776 C.ar      12 UNK        -0.0762 
     14 C14        29.5194   23.8601    5.2760 C.ar      12 UNK        -0.0782 
     15 C15        28.0169   24.4998    7.2002 C.3       12 UNK         0.0230 
     16 S16        26.4293   24.6758    6.3237 S.3       12 UNK        -0.2608 
     17 C17        26.3380   26.4834    6.0940 C.3       12 UNK        -0.0989 
     18 CA         26.8692   26.9627    4.7181 C.3       5 UNK         0.0716 
     19 N          26.2159   26.2628    3.5988 N.am      5 UNK        -0.4135 
     20 C          26.4491   26.4363    2.2897 C.2       4 UNK         0.5031 
     21 O          27.1705   27.3235    1.8310 O.2       4 UNK        -0.5229 
     22 CA         25.7409   25.4682    1.3307 C.3       4 UNK         0.0329 
     23 CB         24.2131   25.4618    1.5381 C.3       4 UNK        -0.2001 
     24 N          26.0323   25.8433   -0.0541 N.am      4 UNK        -0.4303 
     25 C          26.1610   24.9923   -1.0782 C.2       3 UNK         0.5044 
     26 O          26.1710   23.7675   -0.9494 O.2       3 UNK        -0.5152 
     27 CA         26.3122   25.5887   -2.4885 C.3       3 UNK         0.0319 
     28 CB         24.9254   25.7339   -3.1356 C.3       3 UNK        -0.2001 
     29 N          26.9692   26.9019   -2.4850 N.am      3 UNK        -0.4354 
     30 C          28.2042   27.2216   -2.9081 C.2       2 UNK         0.4964 
     31 O          28.5825   28.3917   -2.9057 O.2       2 UNK        -0.5047 
     32 CA         29.1648   26.1240   -3.4281 C.3       2 UNK         0.0288 
     33 CB         30.5053   26.6904   -3.9473 C.3       2 UNK        -0.2113 
     34 N          29.4046   25.0613   -2.4456 N.am      2 UNK        -0.4145 
     35 C          29.9277   25.1685   -1.2136 C.2       1 UNK         0.5006 
     36 O          30.4001   26.2102   -0.7593 O.2       1 UNK        -0.5103 
     37 C          26.8297   28.5068    4.6635 C.2       5 UNK         0.5055 
     38 O          27.6607   29.1465    5.3098 O.2       5 UNK        -0.5220 
     39 N          25.8874   29.0821    3.9015 N.am      6 UNK        -0.4450 
     40 CA         25.8060   30.5149    3.6044 C.3       6 UNK         0.0367 
     41 CB         24.4996   30.7999    2.8465 C.3       6 UNK        -0.1929 
     42 C          27.0151   31.0485    2.8102 C.2       6 UNK         0.5070 
     43 O          27.3213   32.2378    2.9100 O.2       6 UNK        -0.5237 
     44 N          27.7012   30.1749    2.0584 N.am      7 UNK        -0.4739 
     45 CA         28.9429   30.4698    1.3440 C.3       7 UNK         0.0276 
     46 CB         29.1228   29.4464    0.2102 C.3       7 UNK        -0.1927 
     47 C          30.1391   30.4855    2.3120 C.2       7 UNK         0.5013 
     48 O          31.0111   29.6178    2.2404 O.2       7 UNK        -0.5193 
     49 N          30.1666   31.4888    3.2007 N.am      8 UNK        -0.4253 
     50 CA         31.1812   31.6912    4.2435 C.3       8 UNK         0.0242 
     51 CB         30.8395   32.9549    5.0471 C.3       8 UNK        -0.2000 
     52 C          32.6300   31.7567    3.7270 C.2       8 UNK         0.4948 
     53 O          33.5467   31.3975    4.4651 O.2       8 UNK        -0.5275 
     54 N          32.8120   32.1434    2.4561 N.am      9 UNK        -0.4246 
     55 CA         34.0808   32.1077    1.7233 C.3       9 UNK         0.0261 
     56 CB         33.8687   32.7108    0.3253 C.3       9 UNK        -0.1959 
     57 C          34.7169   30.7061    1.6126 C.2       9 UNK         0.5033 
     58 O          35.9317   30.6238    1.4273 O.2       9 UNK        -0.5390 
     59 N          33.9168   29.6354    1.7484 N.am      10 UNK        -0.4215 
     60 CA         34.4034   28.2549    1.8352 C.3       10 UNK         0.0240 
     61 CB         33.2385   27.2830    1.5796 C.3       10 UNK        -0.1982 
     62 C          35.0893   27.9375    3.1794 C.2       10 UNK         0.4970 
     63 O          35.8792   26.9941    3.2313 O.2       10 UNK        -0.4916 
     64 N          34.7828   28.7139    4.2269 N.am      11 UNK        -0.4279 
     65 CA         35.3757   28.6096    5.5670 C.3       11 UNK         0.1003 
     66 C          36.4157   29.7318    5.8226 C.2       11 UNK         0.5709 
     67 N          36.1734   30.9611    5.3851 N.am      11 UNK        -0.7358 
     68 O          37.4613   29.4809    6.4171 O.2       11 UNK        -0.4999 
     69 C69        34.2811   28.6094    6.6653 C.3       12 UNK        -0.0954 
     70 S70        33.3593   27.0396    6.7003 S.3       12 UNK        -0.2268 
     71 C71        31.8764   27.4426    5.7287 C.3       12 UNK         0.0203 
     72 H72        28.4932   19.8898   -1.7612 H         1 UNK         0.0888 
     73 H73        27.3043   21.1940   -1.7653 H         1 UNK         0.0888 
     74 H74        28.2524   20.8614   -3.2163 H         1 UNK         0.0888 
     75 H75        28.0179   22.9873   -0.6608 H         1 UNK         0.3017 
     76 H76        30.9245   23.5155   -0.3298 H         1 UNK         0.0873 
     77 H77        28.5521   24.6994    1.1860 H         1 UNK         0.0745 
     78 H78        30.2315   24.9737    1.5496 H         1 UNK         0.0745 
     79 H79        31.2142   22.1555    3.8055 H         1 UNK         0.0705 
     80 H80        31.7903   23.4093    2.7346 H         1 UNK         0.0705 
     81 H81        32.1552   25.4746    3.8730 H         1 UNK         0.1334 
     82 H82        29.7170   26.6522    7.1984 H         1 UNK         0.1417 
     83 H83        28.9368   22.9547    5.1709 H         1 UNK         0.1562 
     84 H84        28.0338   25.1565    8.0714 H         1 UNK         0.0748 
     85 H85        28.0958   23.4820    7.5849 H         1 UNK         0.0748 
     86 H86        26.8825   26.9672    6.9078 H         1 UNK         0.0940 
     87 H87        25.2945   26.7796    6.2190 H         1 UNK         0.0940 
     88 H88        27.9247   26.6974    4.6474 H         1 UNK         0.0703 
     89 H89        25.6104   25.5042    3.8777 H         1 UNK         0.3081 
     90 H90        26.1342   24.4698    1.5338 H         1 UNK         0.0719 
     91 H91        23.7229   24.7924    0.8307 H         1 UNK         0.0809 
     92 H92        23.7846   26.4559    1.4040 H         1 UNK         0.0809 
     93 H93        23.9413   25.1174    2.5362 H         1 UNK         0.0809 
     94 H94        26.1751   26.8327   -0.2016 H         1 UNK         0.2990 
     95 H95        26.8637   24.8699   -3.0931 H         1 UNK         0.0690 
     96 H96        25.0030   26.0940   -4.1617 H         1 UNK         0.0788 
     97 H97        24.2892   26.4277   -2.5844 H         1 UNK         0.0788 
     98 H98        24.4072   24.7742   -3.1696 H         1 UNK         0.0788 
     99 H99        26.3890   27.6683   -2.1773 H         1 UNK         0.2993 
    100 H100       28.6689   25.6615   -4.2825 H         1 UNK         0.0949 
    101 H101       31.1421   25.9000   -4.3446 H         1 UNK         0.0767 
    102 H102       30.3399   27.4077   -4.7522 H         1 UNK         0.0767 
    103 H103       31.0615   27.2058   -3.1635 H         1 UNK         0.0767 
    104 H104       29.0728   24.1449   -2.7100 H         1 UNK         0.3013 
    105 H105       25.2454   28.4796    3.4085 H         1 UNK         0.3121 
    106 H106       25.7778   31.0521    4.5547 H         1 UNK         0.0774 
    107 H107       24.3971   31.8652    2.6346 H         1 UNK         0.0815 
    108 H108       24.4632   30.2734    1.8919 H         1 UNK         0.0815 
    109 H109       23.6278   30.5028    3.4298 H         1 UNK         0.0815 
    110 H110       27.4153   29.1981    2.0555 H         1 UNK         0.2987 
    111 H111       28.8667   31.4601    0.8897 H         1 UNK         0.0949 
    112 H112       29.2459   28.4316    0.5910 H         1 UNK         0.0806 
    113 H113       28.2643   29.4480   -0.4603 H         1 UNK         0.0806 
    114 H114       30.0049   29.6732   -0.3897 H         1 UNK         0.0806 
    115 H115       29.3697   32.1173    3.2073 H         1 UNK         0.3010 
    116 H116       31.1228   30.8320    4.9150 H         1 UNK         0.0829 
    117 H117       29.8562   32.8759    5.5114 H         1 UNK         0.0813 
    118 H118       31.5623   33.1157    5.8485 H         1 UNK         0.0813 
    119 H119       30.8445   33.8465    4.4187 H         1 UNK         0.0813 
    120 H120       31.9960   32.4204    1.9306 H         1 UNK         0.3038 
    121 H121       34.7876   32.7384    2.2666 H         1 UNK         0.0769 
    122 H122       34.8029   32.7286   -0.2381 H         1 UNK         0.0811 
    123 H123       33.5106   33.7388    0.3850 H         1 UNK         0.0811 
    124 H124       33.1483   32.1353   -0.2575 H         1 UNK         0.0811 
    125 H125       32.9171   29.7695    1.8870 H         1 UNK         0.3204 
    126 H126       35.1450   28.1049    1.0477 H         1 UNK         0.0748 
    127 H127       33.5813   26.2476    1.5907 H         1 UNK         0.0771 
    128 H128       32.4596   27.3764    2.3363 H         1 UNK         0.0771 
    129 H129       32.7770   27.4606    0.6077 H         1 UNK         0.0771 
    130 H130       34.1744   29.5117    4.0886 H         1 UNK         0.2980 
    131 H131       35.9233   27.6687    5.6509 H         1 UNK         0.0545 
    132 H132       35.2730   31.1886    4.9699 H         1 UNK         0.3459 
    133 H133       36.8530   31.6866    5.5459 H         1 UNK         0.3459 
    134 H134       33.5925   29.4470    6.5389 H         1 UNK         0.0616 
    135 H135       34.7281   28.7303    7.6540 H         1 UNK         0.0616 
    136 H136       31.3115   28.2291    6.2317 H         1 UNK         0.0634 
    137 H137       32.1635   27.8401    4.7547 H         1 UNK         0.0634 
@<TRIPOS>BOND
     1    1    2 1    
     2    1   72 1    
     3    1   73 1    
     4    1   74 1    
     5    2    3 2    
     6    2    4 am   BACKBONE|DICT|INTERRES
     7    4    5 1    
     8    4   75 1    
     9    5    6 1    
    10    5   35 1    
    11    5   76 1    
    12    6    7 1    
    13    6   77 1    
    14    6   78 1    
    15    7    8 1    
    16    8    9 1    
    17    8   79 1    
    18    8   80 1    
    19    9   10 ar   
    20    9   14 ar   
    21   10   11 ar   
    22   10   81 1    
    23   11   12 ar   
    24   11   71 1    
    25   12   13 ar   
    26   12   82 1    
    27   13   14 ar   
    28   13   15 1    
    29   14   83 1    
    30   15   16 1    
    31   15   84 1    
    32   15   85 1    
    33   16   17 1    
    34   17   18 1    
    35   17   86 1    
    36   17   87 1    
    37   18   19 1    
    38   18   37 1    
    39   18   88 1    
    40   19   20 am   BACKBONE|DICT|INTERRES
    41   19   89 1    
    42   20   21 2    
    43   20   22 1    
    44   22   23 1    
    45   22   24 1    
    46   22   90 1    
    47   23   91 1    
    48   23   92 1    
    49   23   93 1    
    50   24   25 am   BACKBONE|DICT|INTERRES
    51   24   94 1    
    52   25   26 2    
    53   25   27 1    
    54   27   28 1    
    55   27   29 1    
    56   27   95 1    
    57   28   96 1    
    58   28   97 1    
    59   28   98 1    
    60   29   30 am   BACKBONE|DICT|INTERRES
    61   29   99 1    
    62   30   31 2    
    63   30   32 1    
    64   32   33 1    
    65   32   34 1    
    66   32  100 1    
    67   33  101 1    
    68   33  102 1    
    69   33  103 1    
    70   34   35 am   BACKBONE|DICT|INTERRES
    71   34  104 1    
    72   35   36 2    
    73   37   38 2    
    74   37   39 am   BACKBONE|DICT|INTERRES
    75   39   40 1    
    76   39  105 1    
    77   40   41 1    
    78   40   42 1    
    79   40  106 1    
    80   41  107 1    
    81   41  108 1    
    82   41  109 1    
    83   42   43 2    
    84   42   44 am   BACKBONE|DICT|INTERRES
    85   44   45 1    
    86   44  110 1    
    87   45   46 1    
    88   45   47 1    
    89   45  111 1    
    90   46  112 1    
    91   46  113 1    
    92   46  114 1    
    93   47   48 2    
    94   47   49 am   BACKBONE|DICT|INTERRES
    95   49   50 1    
    96   49  115 1    
    97   50   51 1    
    98   50   52 1    
    99   50  116 1    
   100   51  117 1    
   101   51  118 1    
   102   51  119 1    
   103   52   53 2    
   104   52   54 am   BACKBONE|DICT|INTERRES
   105   54   55 1    
   106   54  120 1    
   107   55   56 1    
   108   55   57 1    
   109   55  121 1    
   110   56  122 1    
   111   56  123 1    
   112   56  124 1    
   113   57   58 2    
   114   57   59 am   BACKBONE|DICT|INTERRES
   115   59   60 1    
   116   59  125 1    
   117   60   61 1    
   118   60   62 1    
   119   60  126 1    
   120   61  127 1    
   121   61  128 1    
   122   61  129 1    
   123   62   63 2    
   124   62   64 am   BACKBONE|DICT|INTERRES
   125   64   65 1    
   126   64  130 1    
   127   65   66 1    
   128   65   69 1    
   129   65  131 1    
   130   66   67 am   BACKBONE|DICT|INTERRES
   131   66   68 2    
   132   67  132 1    
   133   67  133 1    
   134   69   70 1    
   135   69  134 1    
   136   69  135 1    
   137   70   71 1    
   138   71  136 1    
   139   71  137 1    
@<TRIPOS>SUBSTRUCTURE
     1 UNK         1 GROUP             0       ****    0 ROOT    
