@<TRIPOS>MOLECULE
3R136
137   139    1
SMALL
USER_CHARGES


@<TRIPOS>ATOM
      1 CA         33.3449   21.7978    2.2989 C.3       0 UNK        -0.1979 
      2 C          32.9139   23.0981    1.6367 C.2       0 UNK         0.4864 
      3 O          33.4895   23.4812    0.6165 O.2       0 UNK        -0.5359 
      4 N          31.9082   23.7736    2.2090 N.am      1 UNK        -0.4318 
      5 CA         31.3441   25.0243    1.6922 C.3       1 UNK         0.0824 
      6 C6         30.5252   25.7609    2.7830 C.3       12 UNK        -0.0944 
      7 S7         30.3104   27.5385    2.4162 S.3       12 UNK        -0.2672 
      8 C8         31.2044   28.3303    3.7923 C.3       12 UNK         0.0333 
      9 C9         30.5076   28.1015    5.1241 C.ar      12 UNK        -0.0807 
     10 C10        31.1882   27.4986    6.1839 C.ar      12 UNK        -0.0894 
     11 C11        30.5223   27.1906    7.3737 C.ar      12 UNK        -0.0804 
     12 C12        29.1682   27.5214    7.5049 C.ar      12 UNK        -0.0824 
     13 C13        28.4871   28.1675    6.4667 C.ar      12 UNK        -0.0762 
     14 C14        29.1711   28.4691    5.2871 C.ar      12 UNK        -0.0782 
     15 C15        27.0175   28.5382    6.6208 C.3       12 UNK         0.0230 
     16 S16        25.9629   27.7375    5.3646 S.3       12 UNK        -0.2608 
     17 C17        25.8735   29.0066    4.0481 C.3       12 UNK        -0.0989 
     18 CA         26.2747   28.4860    2.6342 C.3       5 UNK         0.0716 
     19 N          25.5327   27.2814    2.2343 N.am      5 UNK        -0.4135 
     20 C          24.2098   27.1823    2.0393 C.2       4 UNK         0.5031 
     21 O          23.4277   28.1322    2.1141 O.2       4 UNK        -0.5229 
     22 CA         23.6763   25.7789    1.6903 C.3       4 UNK         0.0329 
     23 CB         22.1399   25.7342    1.5844 C.3       4 UNK        -0.2001 
     24 N          24.2493   25.2964    0.4340 N.am      4 UNK        -0.4303 
     25 C          25.4514   24.7226    0.3019 C.2       3 UNK         0.5044 
     26 O          26.1894   24.4773    1.2592 O.2       3 UNK        -0.5152 
     27 CA         25.9160   24.3799   -1.1314 C.3       3 UNK         0.0319 
     28 CB         25.0699   25.0469   -2.2406 C.3       3 UNK        -0.2001 
     29 N          27.3375   24.6686   -1.3602 N.am      3 UNK        -0.4354 
     30 C          27.9746   25.8249   -1.1259 C.2       2 UNK         0.4964 
     31 O          27.4552   26.8153   -0.6071 O.2       2 UNK        -0.5047 
     32 CA         29.4521   25.8885   -1.5428 C.3       2 UNK         0.0288 
     33 CB         29.7454   27.1720   -2.3407 C.3       2 UNK        -0.2113 
     34 N          30.3117   25.8549   -0.3642 N.am      2 UNK        -0.4145 
     35 C          30.5092   24.7835    0.4142 C.2       1 UNK         0.5006 
     36 O          30.0479   23.6646    0.1675 O.2       1 UNK        -0.5103 
     37 C          26.1833   29.5974    1.5584 C.2       5 UNK         0.5055 
     38 O          25.9260   30.7569    1.8905 O.2       5 UNK        -0.5220 
     39 N          26.3528   29.2269    0.2809 N.am      6 UNK        -0.4450 
     40 CA         26.1299   30.1057   -0.8720 C.3       6 UNK         0.0367 
     41 CB         25.8263   29.2448   -2.1099 C.3       6 UNK        -0.1929 
     42 C          27.2863   31.0780   -1.1662 C.2       6 UNK         0.5070 
     43 O          27.0887   32.0105   -1.9467 O.2       6 UNK        -0.5237 
     44 N          28.4628   30.8593   -0.5686 N.am      7 UNK        -0.4739 
     45 CA         29.6524   31.6918   -0.7364 C.3       7 UNK         0.0276 
     46 CB         30.5006   31.1457   -1.8998 C.3       7 UNK        -0.1927 
     47 C          30.4583   31.6955    0.5650 C.2       7 UNK         0.5013 
     48 O          30.3141   30.7794    1.3771 O.2       7 UNK        -0.5193 
     49 N          31.3369   32.6935    0.7213 N.am      8 UNK        -0.4253 
     50 CA         32.2704   32.8283    1.8452 C.3       8 UNK         0.0242 
     51 CB         32.6316   34.3160    2.0191 C.3       8 UNK        -0.2000 
     52 C          33.5125   31.9305    1.6639 C.2       8 UNK         0.4948 
     53 O          34.6425   32.4241    1.6634 O.2       8 UNK        -0.5275 
     54 N          33.2722   30.6284    1.4802 N.am      9 UNK        -0.4246 
     55 CA         34.2866   29.5846    1.3384 C.3       9 UNK         0.0261 
     56 CB         33.6877   28.4528    0.4814 C.3       9 UNK        -0.1959 
     57 C          34.7498   29.0650    2.7131 C.2       9 UNK         0.5033 
     58 O          34.2763   29.5329    3.7524 O.2       9 UNK        -0.5390 
     59 N          35.6543   28.0782    2.6965 N.am      10 UNK        -0.4215 
     60 CA         36.0196   27.2818    3.8705 C.3       10 UNK         0.0240 
     61 CB         37.3304   26.5322    3.5802 C.3       10 UNK        -0.1982 
     62 C          34.8983   26.2875    4.2214 C.2       10 UNK         0.4970 
     63 O          34.1654   25.8585    3.3299 O.2       10 UNK        -0.4916 
     64 N          34.8021   25.9219    5.5043 N.am      11 UNK        -0.4279 
     65 CA         33.8166   24.9560    6.0222 C.3       11 UNK         0.1003 
     66 C          34.1226   23.4672    5.6806 C.2       11 UNK         0.5709 
     67 N          35.3248   23.1226    5.2336 N.am      11 UNK        -0.7358 
     68 O          33.2499   22.6123    5.8056 O.2       11 UNK        -0.4999 
     69 C69        33.5844   25.1761    7.5441 C.3       12 UNK        -0.0954 
     70 S70        31.8686   24.8479    8.0823 S.3       12 UNK        -0.2268 
     71 C71        31.2609   26.5128    8.5222 C.3       12 UNK         0.0203 
     72 H72        33.2359   20.9668    1.6026 H         1 UNK         0.0888 
     73 H73        34.3912   21.8600    2.5967 H         1 UNK         0.0888 
     74 H74        32.7533   21.5765    3.1872 H         1 UNK         0.0888 
     75 H75        31.4549   23.3900    3.0250 H         1 UNK         0.3017 
     76 H76        32.1928   25.6550    1.4187 H         1 UNK         0.0873 
     77 H77        29.5423   25.3051    2.9194 H         1 UNK         0.0745 
     78 H78        31.0301   25.6689    3.7458 H         1 UNK         0.0745 
     79 H79        31.2851   29.4017    3.6057 H         1 UNK         0.0705 
     80 H80        32.2187   27.9331    3.8148 H         1 UNK         0.0705 
     81 H81        32.2338   27.2547    6.0752 H         1 UNK         0.1334 
     82 H82        28.6454   27.2836    8.4214 H         1 UNK         0.1417 
     83 H83        28.6582   28.9588    4.4734 H         1 UNK         0.1562 
     84 H84        26.9035   29.6223    6.5853 H         1 UNK         0.0748 
     85 H85        26.6543   28.2329    7.6033 H         1 UNK         0.0748 
     86 H86        26.4982   29.8580    4.3219 H         1 UNK         0.0940 
     87 H87        24.8521   29.3914    4.0346 H         1 UNK         0.0940 
     88 H88        27.3234   28.1901    2.6700 H         1 UNK         0.0703 
     89 H89        26.0860   26.4421    2.1006 H         1 UNK         0.3081 
     90 H90        23.9701   25.1094    2.5019 H         1 UNK         0.0719 
     91 H91        21.6752   26.0622    2.5153 H         1 UNK         0.0809 
     92 H92        21.7688   26.3816    0.7887 H         1 UNK         0.0809 
     93 H93        21.7852   24.7225    1.3869 H         1 UNK         0.0809 
     94 H94        23.7222   25.4942   -0.4041 H         1 UNK         0.2990 
     95 H95        25.8039   23.2994   -1.2319 H         1 UNK         0.0690 
     96 H96        25.4438   24.7813   -3.2296 H         1 UNK         0.0788 
     97 H97        25.0883   26.1347   -2.1665 H         1 UNK         0.0788 
     98 H98        24.0292   24.7226   -2.2043 H         1 UNK         0.0788 
     99 H99        27.8842   23.8929   -1.7079 H         1 UNK         0.2993 
    100 H100       29.6887   25.0300   -2.1753 H         1 UNK         0.0949 
    101 H101       29.1258   27.2226   -3.2369 H         1 UNK         0.0767 
    102 H102       29.5408   28.0691   -1.7547 H         1 UNK         0.0767 
    103 H103       30.7862   27.2117   -2.6626 H         1 UNK         0.0767 
    104 H104       30.6530   26.7472   -0.0358 H         1 UNK         0.3013 
    105 H105       26.6377   28.2704    0.0674 H         1 UNK         0.3121 
    106 H106       25.2464   30.7149   -0.6690 H         1 UNK         0.0774 
    107 H107       25.5750   29.8696   -2.9679 H         1 UNK         0.0815 
    108 H108       26.6816   28.6319   -2.3958 H         1 UNK         0.0815 
    109 H109       24.9786   28.5831   -1.9337 H         1 UNK         0.0815 
    110 H110       28.5490   30.1183    0.1158 H         1 UNK         0.2987 
    111 H111       29.3544   32.7208   -0.9508 H         1 UNK         0.0949 
    112 H112       30.8631   30.1378   -1.6949 H         1 UNK         0.0806 
    113 H113       31.3736   31.7741   -2.0803 H         1 UNK         0.0806 
    114 H114       29.9295   31.1138   -2.8279 H         1 UNK         0.0806 
    115 H115       31.4238   33.3814   -0.0134 H         1 UNK         0.3010 
    116 H116       31.7717   32.5007    2.7604 H         1 UNK         0.0829 
    117 H117       33.1416   34.7143    1.1411 H         1 UNK         0.0813 
    118 H118       31.7429   34.9222    2.1956 H         1 UNK         0.0813 
    119 H119       33.2935   34.4597    2.8743 H         1 UNK         0.0813 
    120 H120       32.3050   30.3247    1.5257 H         1 UNK         0.3038 
    121 H121       35.1559   29.9949    0.8202 H         1 UNK         0.0769 
    122 H122       34.4292   27.6893    0.2447 H         1 UNK         0.0811 
    123 H123       33.3080   28.8321   -0.4677 H         1 UNK         0.0811 
    124 H124       32.8649   27.9574    0.9952 H         1 UNK         0.0811 
    125 H125       35.9712   27.7280    1.8044 H         1 UNK         0.3204 
    126 H126       36.1770   27.9540    4.7170 H         1 UNK         0.0748 
    127 H127       37.6585   25.9629    4.4508 H         1 UNK         0.0771 
    128 H128       37.2198   25.8289    2.7534 H         1 UNK         0.0771 
    129 H129       38.1348   27.2234    3.3272 H         1 UNK         0.0771 
    130 H130       35.4590   26.2931    6.1748 H         1 UNK         0.2980 
    131 H131       32.8790   25.1697    5.5065 H         1 UNK         0.0545 
    132 H132       36.0484   23.8133    5.1221 H         1 UNK         0.3459 
    133 H133       35.5121   22.1561    5.0207 H         1 UNK         0.3459 
    134 H134       34.2595   24.5567    8.1377 H         1 UNK         0.0616 
    135 H135       33.8324   26.2021    7.8179 H         1 UNK         0.0616 
    136 H136       30.5976   26.4048    9.3817 H         1 UNK         0.0634 
    137 H137       32.0795   27.1491    8.8599 H         1 UNK         0.0634 
@<TRIPOS>BOND
     1    1    2 1    
     2    1   72 1    
     3    1   73 1    
     4    1   74 1    
     5    2    3 2    
     6    2    4 am   BACKBONE|DICT|INTERRES
     7    4    5 1    
     8    4   75 1    
     9    5    6 1    
    10    5   35 1    
    11    5   76 1    
    12    6    7 1    
    13    6   77 1    
    14    6   78 1    
    15    7    8 1    
    16    8    9 1    
    17    8   79 1    
    18    8   80 1    
    19    9   10 ar   
    20    9   14 ar   
    21   10   11 ar   
    22   10   81 1    
    23   11   12 ar   
    24   11   71 1    
    25   12   13 ar   
    26   12   82 1    
    27   13   14 ar   
    28   13   15 1    
    29   14   83 1    
    30   15   16 1    
    31   15   84 1    
    32   15   85 1    
    33   16   17 1    
    34   17   18 1    
    35   17   86 1    
    36   17   87 1    
    37   18   19 1    
    38   18   37 1    
    39   18   88 1    
    40   19   20 am   BACKBONE|DICT|INTERRES
    41   19   89 1    
    42   20   21 2    
    43   20   22 1    
    44   22   23 1    
    45   22   24 1    
    46   22   90 1    
    47   23   91 1    
    48   23   92 1    
    49   23   93 1    
    50   24   25 am   BACKBONE|DICT|INTERRES
    51   24   94 1    
    52   25   26 2    
    53   25   27 1    
    54   27   28 1    
    55   27   29 1    
    56   27   95 1    
    57   28   96 1    
    58   28   97 1    
    59   28   98 1    
    60   29   30 am   BACKBONE|DICT|INTERRES
    61   29   99 1    
    62   30   31 2    
    63   30   32 1    
    64   32   33 1    
    65   32   34 1    
    66   32  100 1    
    67   33  101 1    
    68   33  102 1    
    69   33  103 1    
    70   34   35 am   BACKBONE|DICT|INTERRES
    71   34  104 1    
    72   35   36 2    
    73   37   38 2    
    74   37   39 am   BACKBONE|DICT|INTERRES
    75   39   40 1    
    76   39  105 1    
    77   40   41 1    
    78   40   42 1    
    79   40  106 1    
    80   41  107 1    
    81   41  108 1    
    82   41  109 1    
    83   42   43 2    
    84   42   44 am   BACKBONE|DICT|INTERRES
    85   44   45 1    
    86   44  110 1    
    87   45   46 1    
    88   45   47 1    
    89   45  111 1    
    90   46  112 1    
    91   46  113 1    
    92   46  114 1    
    93   47   48 2    
    94   47   49 am   BACKBONE|DICT|INTERRES
    95   49   50 1    
    96   49  115 1    
    97   50   51 1    
    98   50   52 1    
    99   50  116 1    
   100   51  117 1    
   101   51  118 1    
   102   51  119 1    
   103   52   53 2    
   104   52   54 am   BACKBONE|DICT|INTERRES
   105   54   55 1    
   106   54  120 1    
   107   55   56 1    
   108   55   57 1    
   109   55  121 1    
   110   56  122 1    
   111   56  123 1    
   112   56  124 1    
   113   57   58 2    
   114   57   59 am   BACKBONE|DICT|INTERRES
   115   59   60 1    
   116   59  125 1    
   117   60   61 1    
   118   60   62 1    
   119   60  126 1    
   120   61  127 1    
   121   61  128 1    
   122   61  129 1    
   123   62   63 2    
   124   62   64 am   BACKBONE|DICT|INTERRES
   125   64   65 1    
   126   64  130 1    
   127   65   66 1    
   128   65   69 1    
   129   65  131 1    
   130   66   67 am   BACKBONE|DICT|INTERRES
   131   66   68 2    
   132   67  132 1    
   133   67  133 1    
   134   69   70 1    
   135   69  134 1    
   136   69  135 1    
   137   70   71 1    
   138   71  136 1    
   139   71  137 1    
@<TRIPOS>SUBSTRUCTURE
     1 UNK         1 GROUP             0       ****    0 ROOT    
