@<TRIPOS>MOLECULE
3R136
137   139    1
SMALL
USER_CHARGES


@<TRIPOS>ATOM
      1 CA         28.6561   16.9150   -1.8341 C.3       0 UNK        -0.1979 
      2 C          28.6028   18.4340   -1.9075 C.2       0 UNK         0.4864 
      3 O          28.5118   18.9885   -3.0034 O.2       0 UNK        -0.5359 
      4 N          28.6640   19.1076   -0.7499 N.am      1 UNK        -0.4318 
      5 CA         28.6008   20.5684   -0.6207 C.3       1 UNK         0.0824 
      6 C6         29.0249   21.0152    0.8022 C.3       12 UNK        -0.0944 
      7 S7         29.2573   22.8162    0.9728 S.3       12 UNK        -0.2672 
      8 C8         29.9880   22.8865    2.6350 C.3       12 UNK         0.0333 
      9 C9         30.1107   24.3234    3.1140 C.ar      12 UNK        -0.0807 
     10 C10        31.3049   25.0302    2.9458 C.ar      12 UNK        -0.0894 
     11 C11        31.4244   26.3550    3.3806 C.ar      12 UNK        -0.0804 
     12 C12        30.3197   26.9685    3.9908 C.ar      12 UNK        -0.0824 
     13 C13        29.1191   26.2723    4.1592 C.ar      12 UNK        -0.0762 
     14 C14        29.0226   24.9485    3.7254 C.ar      12 UNK        -0.0782 
     15 C15        27.9153   26.9474    4.7967 C.3       12 UNK         0.0230 
     16 S16        26.6485   27.3473    3.5530 S.3       12 UNK        -0.2608 
     17 C17        27.3988   28.7718    2.6918 C.3       12 UNK        -0.0989 
     18 CA         28.1877   28.3975    1.4063 C.3       5 UNK         0.0716 
     19 N          27.3908   27.5771    0.4871 N.am      5 UNK        -0.4135 
     20 C          27.8626   26.7850   -0.4839 C.2       4 UNK         0.5031 
     21 O          29.0593   26.6937   -0.7682 O.2       4 UNK        -0.5229 
     22 CA         26.8200   25.9454   -1.2460 C.3       4 UNK         0.0329 
     23 CB         27.4052   25.2898   -2.5097 C.3       4 UNK        -0.2001 
     24 N          26.2576   24.9062   -0.3803 N.am      4 UNK        -0.4303 
     25 C          25.3287   25.1209    0.5633 C.2       3 UNK         0.5044 
     26 O          24.7898   26.2172    0.7327 O.2       3 UNK        -0.5152 
     27 CA         24.9650   23.9373    1.4856 C.3       3 UNK         0.0319 
     28 CB         23.6004   24.1183    2.1840 C.3       3 UNK        -0.2001 
     29 N          25.0506   22.6256    0.8319 N.am      3 UNK        -0.4354 
     30 C          24.3558   22.1957   -0.2344 C.2       2 UNK         0.4964 
     31 O          23.4721   22.8516   -0.7886 O.2       2 UNK        -0.5047 
     32 CA         24.7276   20.7954   -0.7749 C.3       2 UNK         0.0288 
     33 CB         24.3322   20.6068   -2.2556 C.3       2 UNK        -0.2113 
     34 N          26.1421   20.4381   -0.5751 N.am      2 UNK        -0.4145 
     35 C          27.2137   21.1266   -1.0055 C.2       1 UNK         0.5006 
     36 O          27.1419   22.1701   -1.6550 O.2       1 UNK        -0.5103 
     37 C          28.7854   29.6465    0.7157 C.2       5 UNK         0.5055 
     38 O          28.5302   30.7738    1.1457 O.2       5 UNK        -0.5220 
     39 N          29.5611   29.4371   -0.3545 N.am      6 UNK        -0.4450 
     40 CA         30.3035   30.4750   -1.0676 C.3       6 UNK         0.0367 
     41 CB         30.8595   29.8963   -2.3790 C.3       6 UNK        -0.1929 
     42 C          31.4313   31.0245   -0.1800 C.2       6 UNK         0.5070 
     43 O          32.2719   30.2445    0.2707 O.2       6 UNK        -0.5237 
     44 N          31.4112   32.3447    0.0564 N.am      7 UNK        -0.4739 
     45 CA         32.3054   33.0931    0.9515 C.3       7 UNK         0.0276 
     46 CB         33.7514   33.1036    0.4088 C.3       7 UNK        -0.1927 
     47 C          32.2163   32.6093    2.4135 C.2       7 UNK         0.5013 
     48 O          33.2471   32.4080    3.0565 O.2       7 UNK        -0.5193 
     49 N          30.9777   32.4504    2.9101 N.am      8 UNK        -0.4253 
     50 CA         30.6072   31.9024    4.2252 C.3       8 UNK         0.0242 
     51 CB         29.1001   32.1059    4.4512 C.3       8 UNK        -0.2000 
     52 C          31.3885   32.4488    5.4351 C.2       8 UNK         0.4948 
     53 O          31.6290   31.6992    6.3807 O.2       8 UNK        -0.5275 
     54 N          31.7985   33.7236    5.3784 N.am      9 UNK        -0.4246 
     55 CA         32.6375   34.3783    6.3862 C.3       9 UNK         0.0261 
     56 CB         32.7335   35.8789    6.0668 C.3       9 UNK        -0.1959 
     57 C          34.0465   33.7673    6.5237 C.2       9 UNK         0.5033 
     58 O          34.6169   33.8284    7.6139 O.2       9 UNK        -0.5390 
     59 N          34.5813   33.1858    5.4401 N.am      10 UNK        -0.4215 
     60 CA         35.8776   32.5032    5.4226 C.3       10 UNK         0.0240 
     61 CB         36.4943   32.6287    4.0189 C.3       10 UNK        -0.1982 
     62 C          35.7733   31.0235    5.8332 C.2       10 UNK         0.4970 
     63 O          36.8013   30.4212    6.1454 O.2       10 UNK        -0.4916 
     64 N          34.5583   30.4591    5.8207 N.am      11 UNK        -0.4279 
     65 CA         34.2774   29.0573    6.1701 C.3       11 UNK         0.1003 
     66 C          34.3249   28.7542    7.6962 C.2       11 UNK         0.5709 
     67 N          34.3691   29.7493    8.5749 N.am      11 UNK        -0.7358 
     68 O          34.3340   27.5903    8.0898 O.2       11 UNK        -0.4999 
     69 C69        32.9426   28.5671    5.5496 C.3       12 UNK        -0.0954 
     70 S70        32.8772   28.7898    3.7384 S.3       12 UNK        -0.2268 
     71 C71        32.7618   27.0661    3.1488 C.3       12 UNK         0.0203 
     72 H72        27.7518   16.4869   -2.2660 H         1 UNK         0.0888 
     73 H73        29.5119   16.5422   -2.3963 H         1 UNK         0.0888 
     74 H74        28.7435   16.5581   -0.8081 H         1 UNK         0.0888 
     75 H75        28.7560   18.5911    0.1137 H         1 UNK         0.3017 
     76 H76        29.3200   20.9842   -1.3302 H         1 UNK         0.0873 
     77 H77        29.9711   20.5382    1.0642 H         1 UNK         0.0745 
     78 H78        28.3014   20.6810    1.5484 H         1 UNK         0.0745 
     79 H79        29.3695   22.3168    3.3304 H         1 UNK         0.0705 
     80 H80        30.9663   22.4032    2.6225 H         1 UNK         0.0705 
     81 H81        32.1457   24.5470    2.4665 H         1 UNK         0.1334 
     82 H82        30.3737   27.9934    4.3263 H         1 UNK         0.1417 
     83 H83        28.0922   24.4107    3.8484 H         1 UNK         0.1562 
     84 H84        28.2061   27.8505    5.3357 H         1 UNK         0.0748 
     85 H85        27.4795   26.2775    5.5393 H         1 UNK         0.0748 
     86 H86        28.0466   29.3016    3.3919 H         1 UNK         0.0940 
     87 H87        26.5908   29.4651    2.4499 H         1 UNK         0.0940 
     88 H88        29.0413   27.7912    1.7113 H         1 UNK         0.0703 
     89 H89        26.3959   27.5327    0.6805 H         1 UNK         0.3081 
     90 H90        26.0195   26.6169   -1.5639 H         1 UNK         0.0719 
     91 H91        27.7998   26.0423   -3.1935 H         1 UNK         0.0809 
     92 H92        28.2215   24.6073   -2.2688 H         1 UNK         0.0809 
     93 H93        26.6466   24.7235   -3.0503 H         1 UNK         0.0809 
     94 H94        26.6480   23.9770   -0.4867 H         1 UNK         0.2990 
     95 H95        25.7289   23.9328    2.2648 H         1 UNK         0.0690 
     96 H96        23.3794   23.2823    2.8474 H         1 UNK         0.0788 
     97 H97        22.7852   24.2020    1.4646 H         1 UNK         0.0788 
     98 H98        23.5903   25.0236    2.7925 H         1 UNK         0.0788 
     99 H99        25.7528   22.0031    1.2057 H         1 UNK         0.2993 
    100 H100       24.1445   20.0858   -0.1858 H         1 UNK         0.0949 
    101 H101       24.8312   21.3302   -2.9015 H         1 UNK         0.0767 
    102 H102       24.5891   19.6086   -2.6104 H         1 UNK         0.0767 
    103 H103       23.2577   20.7320   -2.3953 H         1 UNK         0.0767 
    104 H104       26.3090   19.5920   -0.0481 H         1 UNK         0.3013 
    105 H105       29.7083   28.4725   -0.6423 H         1 UNK         0.3121 
    106 H106       29.6099   31.2814   -1.3159 H         1 UNK         0.0774 
    107 H107       31.5427   29.0657   -2.1958 H         1 UNK         0.0815 
    108 H108       30.0589   29.5352   -3.0247 H         1 UNK         0.0815 
    109 H109       31.4101   30.6549   -2.9366 H         1 UNK         0.0815 
    110 H110       30.6677   32.8862   -0.3639 H         1 UNK         0.2987 
    111 H111       31.9513   34.1252    0.9533 H         1 UNK         0.0949 
    112 H112       33.7885   33.4673   -0.6179 H         1 UNK         0.0806 
    113 H113       34.3874   33.7572    1.0072 H         1 UNK         0.0806 
    114 H114       34.2009   32.1103    0.4303 H         1 UNK         0.0806 
    115 H115       30.2064   32.6156    2.2782 H         1 UNK         0.3010 
    116 H116       30.7982   30.8296    4.1788 H         1 UNK         0.0829 
    117 H117       28.8394   33.1640    4.4970 H         1 UNK         0.0813 
    118 H118       28.7803   31.6501    5.3895 H         1 UNK         0.0813 
    119 H119       28.5085   31.6531    3.6570 H         1 UNK         0.0813 
    120 H120       31.5572   34.2657    4.5616 H         1 UNK         0.3038 
    121 H121       32.1401   34.2658    7.3520 H         1 UNK         0.0769 
    122 H122       31.7493   36.3476    6.0572 H         1 UNK         0.0811 
    123 H123       33.2017   36.0567    5.0977 H         1 UNK         0.0811 
    124 H124       33.3304   36.3998    6.8170 H         1 UNK         0.0811 
    125 H125       34.0311   33.1163    4.5847 H         1 UNK         0.3204 
    126 H126       36.5515   32.9925    6.1292 H         1 UNK         0.0748 
    127 H127       35.8946   32.1164    3.2655 H         1 UNK         0.0771 
    128 H128       36.5901   33.6722    3.7187 H         1 UNK         0.0771 
    129 H129       37.4929   32.1906    3.9912 H         1 UNK         0.0771 
    130 H130       33.7552   31.0190    5.5715 H         1 UNK         0.2980 
    131 H131       35.0720   28.4526    5.7286 H         1 UNK         0.0545 
    132 H132       34.4050   29.5382    9.5596 H         1 UNK         0.3459 
    133 H133       34.3523   30.7069    8.2618 H         1 UNK         0.3459 
    134 H134       32.0990   29.1027    5.9868 H         1 UNK         0.0616 
    135 H135       32.7805   27.5131    5.7826 H         1 UNK         0.0616 
    136 H136       33.5637   26.4864    3.6083 H         1 UNK         0.0634 
    137 H137       32.9619   27.0737    2.0764 H         1 UNK         0.0634 
@<TRIPOS>BOND
     1    1    2 1    
     2    1   72 1    
     3    1   73 1    
     4    1   74 1    
     5    2    3 2    
     6    2    4 am   BACKBONE|DICT|INTERRES
     7    4    5 1    
     8    4   75 1    
     9    5    6 1    
    10    5   35 1    
    11    5   76 1    
    12    6    7 1    
    13    6   77 1    
    14    6   78 1    
    15    7    8 1    
    16    8    9 1    
    17    8   79 1    
    18    8   80 1    
    19    9   10 ar   
    20    9   14 ar   
    21   10   11 ar   
    22   10   81 1    
    23   11   12 ar   
    24   11   71 1    
    25   12   13 ar   
    26   12   82 1    
    27   13   14 ar   
    28   13   15 1    
    29   14   83 1    
    30   15   16 1    
    31   15   84 1    
    32   15   85 1    
    33   16   17 1    
    34   17   18 1    
    35   17   86 1    
    36   17   87 1    
    37   18   19 1    
    38   18   37 1    
    39   18   88 1    
    40   19   20 am   BACKBONE|DICT|INTERRES
    41   19   89 1    
    42   20   21 2    
    43   20   22 1    
    44   22   23 1    
    45   22   24 1    
    46   22   90 1    
    47   23   91 1    
    48   23   92 1    
    49   23   93 1    
    50   24   25 am   BACKBONE|DICT|INTERRES
    51   24   94 1    
    52   25   26 2    
    53   25   27 1    
    54   27   28 1    
    55   27   29 1    
    56   27   95 1    
    57   28   96 1    
    58   28   97 1    
    59   28   98 1    
    60   29   30 am   BACKBONE|DICT|INTERRES
    61   29   99 1    
    62   30   31 2    
    63   30   32 1    
    64   32   33 1    
    65   32   34 1    
    66   32  100 1    
    67   33  101 1    
    68   33  102 1    
    69   33  103 1    
    70   34   35 am   BACKBONE|DICT|INTERRES
    71   34  104 1    
    72   35   36 2    
    73   37   38 2    
    74   37   39 am   BACKBONE|DICT|INTERRES
    75   39   40 1    
    76   39  105 1    
    77   40   41 1    
    78   40   42 1    
    79   40  106 1    
    80   41  107 1    
    81   41  108 1    
    82   41  109 1    
    83   42   43 2    
    84   42   44 am   BACKBONE|DICT|INTERRES
    85   44   45 1    
    86   44  110 1    
    87   45   46 1    
    88   45   47 1    
    89   45  111 1    
    90   46  112 1    
    91   46  113 1    
    92   46  114 1    
    93   47   48 2    
    94   47   49 am   BACKBONE|DICT|INTERRES
    95   49   50 1    
    96   49  115 1    
    97   50   51 1    
    98   50   52 1    
    99   50  116 1    
   100   51  117 1    
   101   51  118 1    
   102   51  119 1    
   103   52   53 2    
   104   52   54 am   BACKBONE|DICT|INTERRES
   105   54   55 1    
   106   54  120 1    
   107   55   56 1    
   108   55   57 1    
   109   55  121 1    
   110   56  122 1    
   111   56  123 1    
   112   56  124 1    
   113   57   58 2    
   114   57   59 am   BACKBONE|DICT|INTERRES
   115   59   60 1    
   116   59  125 1    
   117   60   61 1    
   118   60   62 1    
   119   60  126 1    
   120   61  127 1    
   121   61  128 1    
   122   61  129 1    
   123   62   63 2    
   124   62   64 am   BACKBONE|DICT|INTERRES
   125   64   65 1    
   126   64  130 1    
   127   65   66 1    
   128   65   69 1    
   129   65  131 1    
   130   66   67 am   BACKBONE|DICT|INTERRES
   131   66   68 2    
   132   67  132 1    
   133   67  133 1    
   134   69   70 1    
   135   69  134 1    
   136   69  135 1    
   137   70   71 1    
   138   71  136 1    
   139   71  137 1    
@<TRIPOS>SUBSTRUCTURE
     1 UNK         1 GROUP             0       ****    0 ROOT    
