@<TRIPOS>MOLECULE
3R136
137   139    1
SMALL
USER_CHARGES


@<TRIPOS>ATOM
      1 CA         25.7686   21.5872   -2.6937 C.3       0 UNK        -0.1979 
      2 C          26.4124   22.8878   -2.2369 C.2       0 UNK         0.4864 
      3 O          26.0348   23.9588   -2.7130 O.2       0 UNK        -0.5359 
      4 N          27.3774   22.8060   -1.3107 N.am      1 UNK        -0.4318 
      5 CA         28.1181   23.9518   -0.7678 C.3       1 UNK         0.0824 
      6 C6         29.5164   23.5274   -0.2541 C.3       12 UNK        -0.0944 
      7 S7         29.4873   22.3911    1.1798 S.3       12 UNK        -0.2672 
      8 C8         31.2189   21.8269    1.2340 C.3       12 UNK         0.0333 
      9 C9         32.1766   22.9621    1.5684 C.ar      12 UNK        -0.0807 
     10 C10        32.4692   23.2758    2.8992 C.ar      12 UNK        -0.0894 
     11 C11        33.3440   24.3245    3.1994 C.ar      12 UNK        -0.0804 
     12 C12        33.9280   25.0572    2.1633 C.ar      12 UNK        -0.0824 
     13 C13        33.6024   24.7881    0.8307 C.ar      12 UNK        -0.0762 
     14 C14        32.7559   23.7136    0.5420 C.ar      12 UNK        -0.0782 
     15 C15        34.1018   25.6668   -0.3155 C.3       12 UNK         0.0230 
     16 S16        34.2317   27.4587    0.0554 S.3       12 UNK        -0.2608 
     17 C17        32.7617   27.9250    1.0480 C.3       12 UNK        -0.0989 
     18 CA         31.3927   27.2884    0.6709 C.3       5 UNK         0.0716 
     19 N          30.5407   27.1032    1.8525 N.am      5 UNK        -0.4135 
     20 C          30.0012   28.0804    2.5968 C.2       4 UNK         0.5031 
     21 O          30.1445   29.2803    2.3525 O.2       4 UNK        -0.5229 
     22 CA         29.1544   27.6642    3.8097 C.3       4 UNK         0.0329 
     23 CB         27.9229   28.5718    3.9948 C.3       4 UNK        -0.2001 
     24 N          28.7140   26.2707    3.7264 N.am      4 UNK        -0.4303 
     25 C          28.6026   25.4356    4.7705 C.2       3 UNK         0.5044 
     26 O          28.9407   25.7258    5.9185 O.2       3 UNK        -0.5152 
     27 CA         27.9944   24.0437    4.4871 C.3       3 UNK         0.0319 
     28 CB         27.3337   23.4119    5.7307 C.3       3 UNK        -0.2001 
     29 N          27.0703   24.0387    3.3456 N.am      3 UNK        -0.4354 
     30 C          25.9536   24.7714    3.1912 C.2       2 UNK         0.4964 
     31 O          25.4573   25.4598    4.0835 O.2       2 UNK        -0.5047 
     32 CA         25.2977   24.7622    1.7925 C.3       2 UNK         0.0288 
     33 CB         24.7456   26.1525    1.4065 C.3       2 UNK        -0.2113 
     34 N          26.1675   24.2430    0.7250 N.am      2 UNK        -0.4145 
     35 C          27.3436   24.7432    0.3103 C.2       1 UNK         0.5006 
     36 O          27.8647   25.7545    0.7912 O.2       1 UNK        -0.5103 
     37 C          30.6442   28.0106   -0.4707 C.2       5 UNK         0.5055 
     38 O          31.1441   28.9883   -1.0269 O.2       5 UNK        -0.5220 
     39 N          29.4305   27.5189   -0.7663 N.am      6 UNK        -0.4450 
     40 CA         28.4664   28.0468   -1.7400 C.3       6 UNK         0.0367 
     41 CB         29.0280   28.0045   -3.1773 C.3       6 UNK        -0.1929 
     42 C          27.9365   29.4313   -1.3247 C.2       6 UNK         0.5070 
     43 O          27.8366   30.3358   -2.1547 O.2       6 UNK        -0.5237 
     44 N          27.6152   29.5554   -0.0277 N.am      7 UNK        -0.4739 
     45 CA         27.1011   30.7485    0.6582 C.3       7 UNK         0.0276 
     46 CB         25.7136   31.1476    0.1113 C.3       7 UNK        -0.1927 
     47 C          28.0903   31.9321    0.7006 C.2       7 UNK         0.5013 
     48 O          27.6619   33.0743    0.8741 O.2       7 UNK        -0.5193 
     49 N          29.3950   31.6458    0.5846 N.am      8 UNK        -0.4253 
     50 CA         30.4754   32.6192    0.7704 C.3       8 UNK         0.0242 
     51 CB         31.7504   32.1007    0.0885 C.3       8 UNK        -0.2000 
     52 C          30.7471   32.9229    2.2553 C.2       8 UNK         0.4948 
     53 O          31.3234   33.9691    2.5540 O.2       8 UNK        -0.5275 
     54 N          30.3362   32.0053    3.1455 N.am      9 UNK        -0.4246 
     55 CA         30.4836   32.0360    4.6048 C.3       9 UNK         0.0261 
     56 CB         29.7600   33.2503    5.2254 C.3       9 UNK        -0.1959 
     57 C          31.9480   31.8970    5.0596 C.2       9 UNK         0.5033 
     58 O          32.3360   32.4679    6.0805 O.2       9 UNK        -0.5390 
     59 N          32.7291   31.1036    4.3117 N.am      10 UNK        -0.4215 
     60 CA         34.1093   30.7323    4.6483 C.3       10 UNK         0.0240 
     61 CB         34.8218   30.2394    3.3781 C.3       10 UNK        -0.1982 
     62 C          34.1967   29.6715    5.7654 C.2       10 UNK         0.4970 
     63 O          35.2832   29.4472    6.2999 O.2       10 UNK        -0.4916 
     64 N          33.0638   29.0447    6.0926 N.am      11 UNK        -0.4279 
     65 CA         32.8804   28.0365    7.1377 C.3       11 UNK         0.1003 
     66 C          31.4293   28.0899    7.6887 C.2       11 UNK         0.5709 
     67 N          31.1415   27.3578    8.7561 N.am      11 UNK        -0.7358 
     68 O          30.5680   28.8009    7.1704 O.2       11 UNK        -0.4999 
     69 C69        33.3245   26.6181    6.6801 C.3       12 UNK        -0.0954 
     70 S70        32.5114   26.0557    5.1463 S.3       12 UNK        -0.2268 
     71 C71        33.6254   24.7133    4.6391 C.3       12 UNK         0.0203 
     72 H72        26.1945   20.7211   -2.1874 H         1 UNK         0.0888 
     73 H73        24.6981   21.6064   -2.4912 H         1 UNK         0.0888 
     74 H74        25.9102   21.4558   -3.7661 H         1 UNK         0.0888 
     75 H75        27.6517   21.9021   -0.9497 H         1 UNK         0.3017 
     76 H76        28.2820   24.6549   -1.5876 H         1 UNK         0.0873 
     77 H77        30.0693   23.0506   -1.0650 H         1 UNK         0.0745 
     78 H78        30.0948   24.4100    0.0186 H         1 UNK         0.0745 
     79 H79        31.4841   21.3716    0.2785 H         1 UNK         0.0705 
     80 H80        31.3080   21.0369    1.9812 H         1 UNK         0.0705 
     81 H81        32.0059   22.7145    3.6992 H         1 UNK         0.1334 
     82 H82        34.5919   25.8765    2.4020 H         1 UNK         0.1417 
     83 H83        32.5143   23.4834   -0.4868 H         1 UNK         0.1562 
     84 H84        33.4495   25.5574   -1.1835 H         1 UNK         0.0748 
     85 H85        35.0829   25.3065   -0.6268 H         1 UNK         0.0748 
     86 H86        32.6914   29.0124    1.0672 H         1 UNK         0.0940 
     87 H87        33.0043   27.6562    2.0763 H         1 UNK         0.0940 
     88 H88        31.5573   26.2851    0.2919 H         1 UNK         0.0703 
     89 H89        30.3967   26.1483    2.1470 H         1 UNK         0.3081 
     90 H90        29.8063   27.7885    4.6765 H         1 UNK         0.0719 
     91 H91        28.2030   29.6229    4.0676 H         1 UNK         0.0809 
     92 H92        27.2234   28.4698    3.1649 H         1 UNK         0.0809 
     93 H93        27.3874   28.3213    4.9107 H         1 UNK         0.0809 
     94 H94        28.3710   25.9642    2.8218 H         1 UNK         0.2990 
     95 H95        28.8326   23.4065    4.2008 H         1 UNK         0.0690 
     96 H96        26.5266   24.0333    6.1197 H         1 UNK         0.0788 
     97 H97        28.0586   23.2809    6.5350 H         1 UNK         0.0788 
     98 H98        26.9219   22.4284    5.5047 H         1 UNK         0.0788 
     99 H99        27.3810   23.4990    2.5495 H         1 UNK         0.2993 
    100 H100       24.4526   24.0756    1.8622 H         1 UNK         0.0949 
    101 H101       25.5260   26.9143    1.4044 H         1 UNK         0.0767 
    102 H102       24.2896   26.1374    0.4165 H         1 UNK         0.0767 
    103 H103       23.9778   26.4791    2.1090 H         1 UNK         0.0767 
    104 H104       25.8473   23.3954    0.2777 H         1 UNK         0.3013 
    105 H105       29.0669   26.7747   -0.1757 H         1 UNK         0.3121 
    106 H106       27.6057   27.3766   -1.7104 H         1 UNK         0.0774 
    107 H107       28.2575   28.2690   -3.9024 H         1 UNK         0.0815 
    108 H108       29.8525   28.7046   -3.3146 H         1 UNK         0.0815 
    109 H109       29.3861   27.0079   -3.4345 H         1 UNK         0.0815 
    110 H110       27.7547   28.7451    0.5593 H         1 UNK         0.2987 
    111 H111       26.9621   30.4567    1.6998 H         1 UNK         0.0949 
    112 H112       25.0278   30.3004    0.1120 H         1 UNK         0.0806 
    113 H113       25.2602   31.9281    0.7235 H         1 UNK         0.0806 
    114 H114       25.7741   31.5309   -0.9076 H         1 UNK         0.0806 
    115 H115       29.6677   30.6789    0.4607 H         1 UNK         0.3010 
    116 H116       30.1881   33.5561    0.2881 H         1 UNK         0.0829 
    117 H117       31.5832   31.9048   -0.9709 H         1 UNK         0.0813 
    118 H118       32.5578   32.8307    0.1613 H         1 UNK         0.0813 
    119 H119       32.1034   31.1776    0.5462 H         1 UNK         0.0813 
    120 H120       29.9666   31.1353    2.7691 H         1 UNK         0.3038 
    121 H121       29.9791   31.1410    4.9721 H         1 UNK         0.0769 
    122 H122       28.7272   33.3142    4.8830 H         1 UNK         0.0811 
    123 H123       29.7361   33.1748    6.3132 H         1 UNK         0.0811 
    124 H124       30.2554   34.1895    4.9784 H         1 UNK         0.0811 
    125 H125       32.3278   30.6824    3.4857 H         1 UNK         0.3204 
    126 H126       34.6282   31.6248    5.0045 H         1 UNK         0.0748 
    127 H127       34.7633   30.9739    2.5745 H         1 UNK         0.0771 
    128 H128       35.8797   30.0576    3.5725 H         1 UNK         0.0771 
    129 H129       34.3976   29.3046    3.0143 H         1 UNK         0.0771 
    130 H130       32.2026   29.3215    5.6444 H         1 UNK         0.2980 
    131 H131       33.5128   28.3306    7.9774 H         1 UNK         0.0545 
    132 H132       31.8359   26.7740    9.1945 H         1 UNK         0.3459 
    133 H133       30.2021   27.3797    9.1199 H         1 UNK         0.3459 
    134 H134       34.4028   26.6230    6.5154 H         1 UNK         0.0616 
    135 H135       33.1485   25.8784    7.4623 H         1 UNK         0.0616 
    136 H136       33.4948   23.8594    5.3055 H         1 UNK         0.0634 
    137 H137       34.6637   25.0341    4.7373 H         1 UNK         0.0634 
@<TRIPOS>BOND
     1    1    2 1    
     2    1   72 1    
     3    1   73 1    
     4    1   74 1    
     5    2    3 2    
     6    2    4 am   BACKBONE|DICT|INTERRES
     7    4    5 1    
     8    4   75 1    
     9    5    6 1    
    10    5   35 1    
    11    5   76 1    
    12    6    7 1    
    13    6   77 1    
    14    6   78 1    
    15    7    8 1    
    16    8    9 1    
    17    8   79 1    
    18    8   80 1    
    19    9   10 ar   
    20    9   14 ar   
    21   10   11 ar   
    22   10   81 1    
    23   11   12 ar   
    24   11   71 1    
    25   12   13 ar   
    26   12   82 1    
    27   13   14 ar   
    28   13   15 1    
    29   14   83 1    
    30   15   16 1    
    31   15   84 1    
    32   15   85 1    
    33   16   17 1    
    34   17   18 1    
    35   17   86 1    
    36   17   87 1    
    37   18   19 1    
    38   18   37 1    
    39   18   88 1    
    40   19   20 am   BACKBONE|DICT|INTERRES
    41   19   89 1    
    42   20   21 2    
    43   20   22 1    
    44   22   23 1    
    45   22   24 1    
    46   22   90 1    
    47   23   91 1    
    48   23   92 1    
    49   23   93 1    
    50   24   25 am   BACKBONE|DICT|INTERRES
    51   24   94 1    
    52   25   26 2    
    53   25   27 1    
    54   27   28 1    
    55   27   29 1    
    56   27   95 1    
    57   28   96 1    
    58   28   97 1    
    59   28   98 1    
    60   29   30 am   BACKBONE|DICT|INTERRES
    61   29   99 1    
    62   30   31 2    
    63   30   32 1    
    64   32   33 1    
    65   32   34 1    
    66   32  100 1    
    67   33  101 1    
    68   33  102 1    
    69   33  103 1    
    70   34   35 am   BACKBONE|DICT|INTERRES
    71   34  104 1    
    72   35   36 2    
    73   37   38 2    
    74   37   39 am   BACKBONE|DICT|INTERRES
    75   39   40 1    
    76   39  105 1    
    77   40   41 1    
    78   40   42 1    
    79   40  106 1    
    80   41  107 1    
    81   41  108 1    
    82   41  109 1    
    83   42   43 2    
    84   42   44 am   BACKBONE|DICT|INTERRES
    85   44   45 1    
    86   44  110 1    
    87   45   46 1    
    88   45   47 1    
    89   45  111 1    
    90   46  112 1    
    91   46  113 1    
    92   46  114 1    
    93   47   48 2    
    94   47   49 am   BACKBONE|DICT|INTERRES
    95   49   50 1    
    96   49  115 1    
    97   50   51 1    
    98   50   52 1    
    99   50  116 1    
   100   51  117 1    
   101   51  118 1    
   102   51  119 1    
   103   52   53 2    
   104   52   54 am   BACKBONE|DICT|INTERRES
   105   54   55 1    
   106   54  120 1    
   107   55   56 1    
   108   55   57 1    
   109   55  121 1    
   110   56  122 1    
   111   56  123 1    
   112   56  124 1    
   113   57   58 2    
   114   57   59 am   BACKBONE|DICT|INTERRES
   115   59   60 1    
   116   59  125 1    
   117   60   61 1    
   118   60   62 1    
   119   60  126 1    
   120   61  127 1    
   121   61  128 1    
   122   61  129 1    
   123   62   63 2    
   124   62   64 am   BACKBONE|DICT|INTERRES
   125   64   65 1    
   126   64  130 1    
   127   65   66 1    
   128   65   69 1    
   129   65  131 1    
   130   66   67 am   BACKBONE|DICT|INTERRES
   131   66   68 2    
   132   67  132 1    
   133   67  133 1    
   134   69   70 1    
   135   69  134 1    
   136   69  135 1    
   137   70   71 1    
   138   71  136 1    
   139   71  137 1    
@<TRIPOS>SUBSTRUCTURE
     1 UNK         1 GROUP             0       ****    0 ROOT    
