@<TRIPOS>MOLECULE
3R136
137   139    1
SMALL
USER_CHARGES


@<TRIPOS>ATOM
      1 CA         25.1303   25.3112    4.9028 C.3       0 UNK        -0.1979 
      2 C          25.7363   23.9926    4.4462 C.2       0 UNK         0.4864 
      3 O          25.0028   23.0235    4.2488 O.2       0 UNK        -0.5359 
      4 N          27.0667   23.9448    4.2845 N.am      1 UNK        -0.4318 
      5 CA         27.8210   22.7564    3.8628 C.3       1 UNK         0.0824 
      6 C6         29.3384   22.9062    4.1363 C.3       12 UNK        -0.0944 
      7 S7         30.1035   24.3645    3.3443 S.3       12 UNK        -0.2672 
      8 C8         31.1834   23.5503    2.1308 C.3       12 UNK         0.0333 
      9 C9         31.8958   24.5719    1.2613 C.ar      12 UNK        -0.0807 
     10 C10        33.1793   25.0171    1.5927 C.ar      12 UNK        -0.0894 
     11 C11        33.8318   25.9541    0.7850 C.ar      12 UNK        -0.0804 
     12 C12        33.1978   26.4337   -0.3648 C.ar      12 UNK        -0.0824 
     13 C13        31.9097   26.0057   -0.6972 C.ar      12 UNK        -0.0762 
     14 C14        31.2657   25.0728    0.1197 C.ar      12 UNK        -0.0782 
     15 C15        31.2074   26.5638   -1.9276 C.3       12 UNK         0.0230 
     16 S16        30.9090   28.3551   -1.7873 S.3       12 UNK        -0.2608 
     17 C17        29.8074   28.4411   -0.3350 C.3       12 UNK        -0.0989 
     18 CA         28.3806   28.9130   -0.7001 C.3       5 UNK         0.0716 
     19 N          27.6921   27.9785   -1.5992 N.am      5 UNK        -0.4135 
     20 C          27.3188   28.2676   -2.8542 C.2       4 UNK         0.5031 
     21 O          27.5178   29.3519   -3.4046 O.2       4 UNK        -0.5229 
     22 CA         26.5939   27.1613   -3.6443 C.3       4 UNK         0.0329 
     23 CB         27.6068   26.3247   -4.4432 C.3       4 UNK        -0.2001 
     24 N          25.7888   26.2705   -2.8061 N.am      4 UNK        -0.4303 
     25 C          24.7228   26.6451   -2.0845 C.2       3 UNK         0.5044 
     26 O          24.2474   27.7806   -2.1054 O.2       3 UNK        -0.5152 
     27 CA         24.0839   25.5853   -1.1670 C.3       3 UNK         0.0319 
     28 CB         22.7703   25.0711   -1.7787 C.3       3 UNK        -0.2001 
     29 N          24.9392   24.4363   -0.8378 N.am      3 UNK        -0.4354 
     30 C          26.1081   24.4960   -0.1869 C.2       2 UNK         0.4964 
     31 O          26.6849   25.5484    0.1074 O.2       2 UNK        -0.5047 
     32 CA         26.7575   23.1625    0.1842 C.3       2 UNK         0.0288 
     33 CB         27.8614   22.7821   -0.8181 C.3       2 UNK        -0.2113 
     34 N          27.2957   23.3190    1.5296 N.am      2 UNK        -0.4145 
     35 C          27.5180   22.3337    2.4075 C.2       1 UNK         0.5006 
     36 O          27.4516   21.1359    2.1245 O.2       1 UNK        -0.5103 
     37 C          27.5668   29.1608    0.5823 C.2       5 UNK         0.5055 
     38 O          27.6435   30.2641    1.1238 O.2       5 UNK        -0.5220 
     39 N          26.8248   28.1453    1.0556 N.am      6 UNK        -0.4450 
     40 CA         26.0242   28.1324    2.2851 C.3       6 UNK         0.0367 
     41 CB         24.8198   29.0903    2.1692 C.3       6 UNK        -0.1929 
     42 C          26.8710   28.3625    3.5542 C.2       6 UNK         0.5070 
     43 O          26.4425   29.0885    4.4515 O.2       6 UNK        -0.5237 
     44 N          28.0501   27.7180    3.5979 N.am      7 UNK        -0.4739 
     45 CA         29.0763   27.7992    4.6479 C.3       7 UNK         0.0276 
     46 CB         28.5756   27.1848    5.9734 C.3       7 UNK        -0.1927 
     47 C          29.6176   29.2308    4.8185 C.2       7 UNK         0.5013 
     48 O          29.3544   29.8814    5.8327 O.2       7 UNK        -0.5193 
     49 N          30.3546   29.6954    3.7998 N.am      8 UNK        -0.4253 
     50 CA         31.0374   30.9918    3.7784 C.3       8 UNK         0.0242 
     51 CB         31.6737   31.2004    2.3940 C.3       8 UNK        -0.2000 
     52 C          32.1074   31.0966    4.8794 C.2       8 UNK         0.4948 
     53 O          32.7964   30.1122    5.1514 O.2       8 UNK        -0.5275 
     54 N          32.2523   32.2944    5.4635 N.am      9 UNK        -0.4246 
     55 CA         33.1192   32.5810    6.6162 C.3       9 UNK         0.0261 
     56 CB         32.8998   34.0370    7.0600 C.3       9 UNK        -0.1959 
     57 C          34.6207   32.3078    6.4021 C.2       9 UNK         0.5033 
     58 O          35.3362   32.0926    7.3815 O.2       9 UNK        -0.5390 
     59 N          35.0722   32.3173    5.1412 N.am      10 UNK        -0.4215 
     60 CA         36.4363   31.9634    4.7439 C.3       10 UNK         0.0240 
     61 CB         36.6999   32.5074    3.3297 C.3       10 UNK        -0.1982 
     62 C          36.7178   30.4486    4.7937 C.2       10 UNK         0.4970 
     63 O          37.8876   30.0672    4.8569 O.2       10 UNK        -0.4916 
     64 N          35.6675   29.6207    4.7386 N.am      11 UNK        -0.4279 
     65 CA         35.7441   28.1545    4.7274 C.3       11 UNK         0.1003 
     66 C          35.5653   27.5568    6.1489 C.2       11 UNK         0.5709 
     67 N          35.9453   26.3000    6.3386 N.am      11 UNK        -0.7358 
     68 O          35.0832   28.2019    7.0785 O.2       11 UNK        -0.4999 
     69 C69        34.7246   27.5589    3.7207 C.3       12 UNK        -0.0954 
     70 S70        35.1065   28.0684    2.0089 S.3       12 UNK        -0.2268 
     71 C71        35.2148   26.4677    1.1512 C.3       12 UNK         0.0203 
     72 H72        25.8920   26.0465    5.1568 H         1 UNK         0.0888 
     73 H73        24.5141   25.1519    5.7873 H         1 UNK         0.0888 
     74 H74        24.4969   25.7264    4.1197 H         1 UNK         0.0888 
     75 H75        27.6262   24.7660    4.4622 H         1 UNK         0.3017 
     76 H76        27.4715   21.9317    4.4884 H         1 UNK         0.0873 
     77 H77        29.5005   22.9993    5.2113 H         1 UNK         0.0745 
     78 H78        29.8691   21.9975    3.8455 H         1 UNK         0.0745 
     79 H79        31.9100   22.9255    2.6528 H         1 UNK         0.0705 
     80 H80        30.5896   22.8808    1.5060 H         1 UNK         0.0705 
     81 H81        33.6649   24.6408    2.4826 H         1 UNK         0.1334 
     82 H82        33.6957   27.1646   -0.9877 H         1 UNK         0.1417 
     83 H83        30.2667   24.7439   -0.1221 H         1 UNK         0.1562 
     84 H84        30.2565   26.0578   -2.1016 H         1 UNK         0.0748 
     85 H85        31.8230   26.3748   -2.8080 H         1 UNK         0.0748 
     86 H86        30.2704   29.1334    0.3705 H         1 UNK         0.0940 
     87 H87        29.7708   27.4772    0.1738 H         1 UNK         0.0940 
     88 H88        28.4729   29.8886   -1.1826 H         1 UNK         0.0703 
     89 H89        27.4682   27.0639   -1.2295 H         1 UNK         0.3081 
     90 H90        25.9203   27.6509   -4.3509 H         1 UNK         0.0719 
     91 H91        28.2884   25.7798   -3.7890 H         1 UNK         0.0809 
     92 H92        27.1054   25.6004   -5.0854 H         1 UNK         0.0809 
     93 H93        28.2147   26.9605   -5.0888 H         1 UNK         0.0809 
     94 H94        26.0908   25.3099   -2.7380 H         1 UNK         0.2990 
     95 H95        23.8462   26.0887   -0.2273 H         1 UNK         0.0690 
     96 H96        22.2445   24.4071   -1.0922 H         1 UNK         0.0788 
     97 H97        22.9440   24.5270   -2.7080 H         1 UNK         0.0788 
     98 H98        22.0941   25.8967   -2.0063 H         1 UNK         0.0788 
     99 H99        24.5605   23.5269   -1.0625 H         1 UNK         0.2993 
    100 H100       25.9944   22.3810    0.2010 H         1 UNK         0.0949 
    101 H101       28.5814   23.5870   -0.9537 H         1 UNK         0.0767 
    102 H102       28.4059   21.8937   -0.4978 H         1 UNK         0.0767 
    103 H103       27.4350   22.5637   -1.7978 H         1 UNK         0.0767 
    104 H104       27.3718   24.2788    1.8387 H         1 UNK         0.3013 
    105 H105       26.8372   27.2522    0.5664 H         1 UNK         0.3121 
    106 H106       25.6248   27.1210    2.3694 H         1 UNK         0.0774 
    107 H107       24.2360   28.8852    1.2717 H         1 UNK         0.0815 
    108 H108       24.1503   28.9810    3.0232 H         1 UNK         0.0815 
    109 H109       25.1335   30.1340    2.1347 H         1 UNK         0.0815 
    110 H110       28.3040   27.1686    2.7892 H         1 UNK         0.2987 
    111 H111       29.9204   27.1929    4.3149 H         1 UNK         0.0949 
    112 H112       27.7009   27.7052    6.3643 H         1 UNK         0.0806 
    113 H113       28.3202   26.1332    5.8550 H         1 UNK         0.0806 
    114 H114       29.3499   27.2387    6.7398 H         1 UNK         0.0806 
    115 H115       30.5307   29.0847    3.0172 H         1 UNK         0.3010 
    116 H116       30.2845   31.7659    3.9418 H         1 UNK         0.0829 
    117 H117       30.9195   31.1950    1.6068 H         1 UNK         0.0813 
    118 H118       32.1870   32.1612    2.3380 H         1 UNK         0.0813 
    119 H119       32.4073   30.4254    2.1651 H         1 UNK         0.0813 
    120 H120       31.6592   33.0525    5.1563 H         1 UNK         0.3038 
    121 H121       32.7952   31.9266    7.4284 H         1 UNK         0.0769 
    122 H122       33.1705   34.7436    6.2744 H         1 UNK         0.0811 
    123 H123       33.5068   34.2752    7.9348 H         1 UNK         0.0811 
    124 H124       31.8600   34.2181    7.3333 H         1 UNK         0.0811 
    125 H125       34.4147   32.5155    4.4015 H         1 UNK         0.3204 
    126 H126       37.1329   32.4486    5.4312 H         1 UNK         0.0748 
    127 H127       37.7220   32.2936    3.0136 H         1 UNK         0.0771 
    128 H128       36.0315   32.0590    2.5933 H         1 UNK         0.0771 
    129 H129       36.5703   33.5892    3.2889 H         1 UNK         0.0771 
    130 H130       34.7253   29.9952    4.7887 H         1 UNK         0.2980 
    131 H131       36.7414   27.8579    4.3961 H         1 UNK         0.0545 
    132 H132       36.3460   25.7560    5.5906 H         1 UNK         0.3459 
    133 H133       35.8355   25.8897    7.2527 H         1 UNK         0.3459 
    134 H134       33.7080   27.8756    3.9591 H         1 UNK         0.0616 
    135 H135       34.7218   26.4698    3.7776 H         1 UNK         0.0616 
    136 H136       35.8069   26.5971    0.2440 H         1 UNK         0.0634 
    137 H137       35.7544   25.7451    1.7652 H         1 UNK         0.0634 
@<TRIPOS>BOND
     1    1    2 1    
     2    1   72 1    
     3    1   73 1    
     4    1   74 1    
     5    2    3 2    
     6    2    4 am   BACKBONE|DICT|INTERRES
     7    4    5 1    
     8    4   75 1    
     9    5    6 1    
    10    5   35 1    
    11    5   76 1    
    12    6    7 1    
    13    6   77 1    
    14    6   78 1    
    15    7    8 1    
    16    8    9 1    
    17    8   79 1    
    18    8   80 1    
    19    9   10 ar   
    20    9   14 ar   
    21   10   11 ar   
    22   10   81 1    
    23   11   12 ar   
    24   11   71 1    
    25   12   13 ar   
    26   12   82 1    
    27   13   14 ar   
    28   13   15 1    
    29   14   83 1    
    30   15   16 1    
    31   15   84 1    
    32   15   85 1    
    33   16   17 1    
    34   17   18 1    
    35   17   86 1    
    36   17   87 1    
    37   18   19 1    
    38   18   37 1    
    39   18   88 1    
    40   19   20 am   BACKBONE|DICT|INTERRES
    41   19   89 1    
    42   20   21 2    
    43   20   22 1    
    44   22   23 1    
    45   22   24 1    
    46   22   90 1    
    47   23   91 1    
    48   23   92 1    
    49   23   93 1    
    50   24   25 am   BACKBONE|DICT|INTERRES
    51   24   94 1    
    52   25   26 2    
    53   25   27 1    
    54   27   28 1    
    55   27   29 1    
    56   27   95 1    
    57   28   96 1    
    58   28   97 1    
    59   28   98 1    
    60   29   30 am   BACKBONE|DICT|INTERRES
    61   29   99 1    
    62   30   31 2    
    63   30   32 1    
    64   32   33 1    
    65   32   34 1    
    66   32  100 1    
    67   33  101 1    
    68   33  102 1    
    69   33  103 1    
    70   34   35 am   BACKBONE|DICT|INTERRES
    71   34  104 1    
    72   35   36 2    
    73   37   38 2    
    74   37   39 am   BACKBONE|DICT|INTERRES
    75   39   40 1    
    76   39  105 1    
    77   40   41 1    
    78   40   42 1    
    79   40  106 1    
    80   41  107 1    
    81   41  108 1    
    82   41  109 1    
    83   42   43 2    
    84   42   44 am   BACKBONE|DICT|INTERRES
    85   44   45 1    
    86   44  110 1    
    87   45   46 1    
    88   45   47 1    
    89   45  111 1    
    90   46  112 1    
    91   46  113 1    
    92   46  114 1    
    93   47   48 2    
    94   47   49 am   BACKBONE|DICT|INTERRES
    95   49   50 1    
    96   49  115 1    
    97   50   51 1    
    98   50   52 1    
    99   50  116 1    
   100   51  117 1    
   101   51  118 1    
   102   51  119 1    
   103   52   53 2    
   104   52   54 am   BACKBONE|DICT|INTERRES
   105   54   55 1    
   106   54  120 1    
   107   55   56 1    
   108   55   57 1    
   109   55  121 1    
   110   56  122 1    
   111   56  123 1    
   112   56  124 1    
   113   57   58 2    
   114   57   59 am   BACKBONE|DICT|INTERRES
   115   59   60 1    
   116   59  125 1    
   117   60   61 1    
   118   60   62 1    
   119   60  126 1    
   120   61  127 1    
   121   61  128 1    
   122   61  129 1    
   123   62   63 2    
   124   62   64 am   BACKBONE|DICT|INTERRES
   125   64   65 1    
   126   64  130 1    
   127   65   66 1    
   128   65   69 1    
   129   65  131 1    
   130   66   67 am   BACKBONE|DICT|INTERRES
   131   66   68 2    
   132   67  132 1    
   133   67  133 1    
   134   69   70 1    
   135   69  134 1    
   136   69  135 1    
   137   70   71 1    
   138   71  136 1    
   139   71  137 1    
@<TRIPOS>SUBSTRUCTURE
     1 UNK         1 GROUP             0       ****    0 ROOT    
