@<TRIPOS>MOLECULE
3R136
137   139    1
SMALL
USER_CHARGES


@<TRIPOS>ATOM
      1 CA         30.3859   31.3323   -3.8904 C.3       0 UNK        -0.1979 
      2 C          29.8427   30.5286   -2.7187 C.2       0 UNK         0.4864 
      3 O          29.4316   31.1160   -1.7175 O.2       0 UNK        -0.5359 
      4 N          29.8572   29.1939   -2.8313 N.am      1 UNK        -0.4318 
      5 CA         29.3206   28.2569   -1.8384 C.3       1 UNK         0.0824 
      6 C6         29.8686   26.8256   -2.0840 C.3       12 UNK        -0.0944 
      7 S7         29.8461   25.8002   -0.5757 S.3       12 UNK        -0.2672 
      8 C8         31.6134   25.7448   -0.1581 C.3       12 UNK         0.0333 
      9 C9         31.8277   25.2289    1.2551 C.ar      12 UNK        -0.0807 
     10 C10        32.0510   26.1241    2.3074 C.ar      12 UNK        -0.0894 
     11 C11        32.2471   25.6518    3.6083 C.ar      12 UNK        -0.0804 
     12 C12        32.2088   24.2759    3.8518 C.ar      12 UNK        -0.0824 
     13 C13        31.9674   23.3727    2.8117 C.ar      12 UNK        -0.0762 
     14 C14        31.7941   23.8546    1.5112 C.ar      12 UNK        -0.0782 
     15 C15        31.8577   21.8807    3.1022 C.3       12 UNK         0.0230 
     16 S16        30.1259   21.2980    3.0801 S.3       12 UNK        -0.2608 
     17 C17        29.3325   22.4483    4.2537 C.3       12 UNK        -0.0989 
     18 CA         28.5860   23.5809    3.4976 C.3       5 UNK         0.0716 
     19 N          27.2635   23.1392    3.0402 N.am      5 UNK        -0.4135 
     20 C          26.5028   23.7830    2.1465 C.2       4 UNK         0.5031 
     21 O          26.8624   24.8060    1.5593 O.2       4 UNK        -0.5229 
     22 CA         25.1070   23.2011    1.8663 C.3       4 UNK         0.0329 
     23 CB         24.2602   23.0876    3.1481 C.3       4 UNK        -0.2001 
     24 N          24.4352   24.0988    0.9334 N.am      4 UNK        -0.4303 
     25 C          23.7268   23.7632   -0.1481 C.2       3 UNK         0.5044 
     26 O          23.4266   22.6042   -0.4384 O.2       3 UNK        -0.5152 
     27 CA         23.2692   24.9184   -1.0666 C.3       3 UNK         0.0319 
     28 CB         21.7456   25.1069   -0.9759 C.3       3 UNK        -0.2001 
     29 N          23.9241   26.2034   -0.7789 N.am      3 UNK        -0.4354 
     30 C          25.2112   26.4838   -1.0325 C.2       2 UNK         0.4964 
     31 O          25.9636   25.7054   -1.6228 O.2       2 UNK        -0.5047 
     32 CA         25.7231   27.8471   -0.5169 C.3       2 UNK         0.0288 
     33 CB         25.3908   28.0615    0.9728 C.3       2 UNK        -0.2113 
     34 N          27.1697   27.9936   -0.6875 N.am      2 UNK        -0.4145 
     35 C          27.7762   28.2807   -1.8451 C.2       1 UNK         0.5006 
     36 O          27.1700   28.5342   -2.8918 O.2       1 UNK        -0.5103 
     37 C          28.4879   24.8801    4.3273 C.2       5 UNK         0.5055 
     38 O          28.4460   24.8272    5.5583 O.2       5 UNK        -0.5220 
     39 N          28.4385   26.0153    3.6258 N.am      6 UNK        -0.4450 
     40 CA         28.3680   27.3771    4.1361 C.3       6 UNK         0.0367 
     41 CB         26.9659   27.6637    4.7093 C.3       6 UNK        -0.1929 
     42 C          28.7015   28.3313    2.9812 C.2       6 UNK         0.5070 
     43 O          28.6859   27.9182    1.8181 O.2       6 UNK        -0.5237 
     44 N          28.9755   29.5953    3.3274 N.am      7 UNK        -0.4739 
     45 CA         29.4315   30.6671    2.4332 C.3       7 UNK         0.0276 
     46 CB         28.3642   31.0103    1.3710 C.3       7 UNK        -0.1927 
     47 C          30.8366   30.3760    1.8657 C.2       7 UNK         0.5013 
     48 O          31.6312   29.7306    2.5537 O.2       7 UNK        -0.5193 
     49 N          31.1560   30.8998    0.6725 N.am      8 UNK        -0.4253 
     50 CA         32.4831   30.9035    0.0398 C.3       8 UNK         0.0242 
     51 CB         32.8609   29.4884   -0.4529 C.3       8 UNK        -0.2000 
     52 C          33.5435   31.5387    0.9623 C.2       8 UNK         0.4948 
     53 O          33.5373   32.7576    1.1378 O.2       8 UNK        -0.5275 
     54 N          34.4013   30.7020    1.5616 N.am      9 UNK        -0.4246 
     55 CA         35.3996   31.0741    2.5666 C.3       9 UNK         0.0261 
     56 CB         36.4729   29.9725    2.6178 C.3       9 UNK        -0.1959 
     57 C          34.8113   31.3148    3.9726 C.2       9 UNK         0.5033 
     58 O          35.5659   31.6908    4.8702 O.2       9 UNK        -0.5390 
     59 N          33.5106   31.0483    4.1677 N.am      10 UNK        -0.4215 
     60 CA         32.7085   31.1452    5.3973 C.3       10 UNK         0.0240 
     61 CB         32.7697   32.5520    6.0241 C.3       10 UNK        -0.1982 
     62 C          33.0046   30.0480    6.4343 C.2       10 UNK         0.4970 
     63 O          32.0816   29.6388    7.1397 O.2       10 UNK        -0.4916 
     64 N          34.2537   29.5706    6.4807 N.am      11 UNK        -0.4279 
     65 CA         34.7538   28.4919    7.3452 C.3       11 UNK         0.1003 
     66 C          34.7577   28.8735    8.8584 C.2       11 UNK         0.5709 
     67 N          34.9025   27.9112    9.7606 N.am      11 UNK        -0.7358 
     68 O          34.6852   30.0440    9.2308 O.2       11 UNK        -0.4999 
     69 C69        34.0815   27.1174    7.0441 C.3       12 UNK        -0.0954 
     70 S70        34.2162   26.6059    5.2942 S.3       12 UNK        -0.2268 
     71 C71        32.4734   26.6155    4.7638 C.3       12 UNK         0.0203 
     72 H72        31.2240   31.9480   -3.5652 H         1 UNK         0.0888 
     73 H73        30.7305   30.6909   -4.7013 H         1 UNK         0.0888 
     74 H74        29.6113   31.9902   -4.2834 H         1 UNK         0.0888 
     75 H75        30.1721   28.7779   -3.6957 H         1 UNK         0.3017 
     76 H76        29.6610   28.5987   -0.8574 H         1 UNK         0.0873 
     77 H77        30.8967   26.8714   -2.4469 H         1 UNK         0.0745 
     78 H78        29.3067   26.3132   -2.8678 H         1 UNK         0.0745 
     79 H79        32.0409   26.7404   -0.2621 H         1 UNK         0.0705 
     80 H80        32.1355   25.1077   -0.8735 H         1 UNK         0.0705 
     81 H81        32.0626   27.1880    2.1157 H         1 UNK         0.1334 
     82 H82        32.3494   23.9121    4.8606 H         1 UNK         0.1417 
     83 H83        31.6010   23.1618    0.7032 H         1 UNK         0.1562 
     84 H84        32.3010   21.6439    4.0708 H         1 UNK         0.0748 
     85 H85        32.4302   21.3214    2.3609 H         1 UNK         0.0748 
     86 H86        28.6498   21.8919    4.8981 H         1 UNK         0.0940 
     87 H87        30.0982   22.8401    4.9248 H         1 UNK         0.0940 
     88 H88        29.1660   23.8375    2.6084 H         1 UNK         0.0703 
     89 H89        26.8979   22.3086    3.4809 H         1 UNK         0.3081 
     90 H90        25.2356   22.2147    1.4158 H         1 UNK         0.0719 
     91 H91        23.2488   22.7491    2.9223 H         1 UNK         0.0809 
     92 H92        24.6871   22.3691    3.8482 H         1 UNK         0.0809 
     93 H93        24.1825   24.0450    3.6653 H         1 UNK         0.0809 
     94 H94        24.7265   25.0633    1.0192 H         1 UNK         0.2990 
     95 H95        23.5171   24.6324   -2.0910 H         1 UNK         0.0690 
     96 H96        21.3968   25.8692   -1.6729 H         1 UNK         0.0788 
     97 H97        21.4338   25.3988    0.0278 H         1 UNK         0.0788 
     98 H98        21.2218   24.1823   -1.2230 H         1 UNK         0.0788 
     99 H99        23.3628   26.8946   -0.3020 H         1 UNK         0.2993 
    100 H100       25.2247   28.6262   -1.0977 H         1 UNK         0.0949 
    101 H101       25.8072   27.2661    1.5911 H         1 UNK         0.0767 
    102 H102       25.7985   29.0056    1.3351 H         1 UNK         0.0767 
    103 H103       24.3159   28.0926    1.1513 H         1 UNK         0.0767 
    104 H104       27.7436   27.7683    0.1232 H         1 UNK         0.3013 
    105 H105       28.4305   25.9660    2.6093 H         1 UNK         0.3121 
    106 H106       29.1232   27.4981    4.9155 H         1 UNK         0.0774 
    107 H107       26.8853   28.6915    5.0643 H         1 UNK         0.0815 
    108 H108       26.1880   27.5151    3.9603 H         1 UNK         0.0815 
    109 H109       26.7399   27.0155    5.5559 H         1 UNK         0.0815 
    110 H110       28.9737   29.8270    4.3107 H         1 UNK         0.2987 
    111 H111       29.5512   31.5481    3.0654 H         1 UNK         0.0949 
    112 H112       28.2771   30.2332    0.6131 H         1 UNK         0.0806 
    113 H113       27.3822   31.1390    1.8260 H         1 UNK         0.0806 
    114 H114       28.5991   31.9432    0.8576 H         1 UNK         0.0806 
    115 H115       30.4267   31.3613    0.1389 H         1 UNK         0.3010 
    116 H116       32.4086   31.5498   -0.8362 H         1 UNK         0.0829 
    117 H117       32.1355   29.1172   -1.1742 H         1 UNK         0.0813 
    118 H118       33.8302   29.4917   -0.9535 H         1 UNK         0.0813 
    119 H119       32.9102   28.7678    0.3626 H         1 UNK         0.0813 
    120 H120       34.3016   29.7149    1.3727 H         1 UNK         0.3038 
    121 H121       35.8764   32.0050    2.2528 H         1 UNK         0.0769 
    122 H122       37.2716   30.2343    3.3134 H         1 UNK         0.0811 
    123 H123       36.9354   29.8221    1.6422 H         1 UNK         0.0811 
    124 H124       36.0571   29.0182    2.9448 H         1 UNK         0.0811 
    125 H125       32.9977   30.6409    3.3869 H         1 UNK         0.3204 
    126 H126       31.6789   30.9827    5.0748 H         1 UNK         0.0748 
    127 H127       33.7567   32.7784    6.4281 H         1 UNK         0.0771 
    128 H128       32.5187   33.3226    5.2951 H         1 UNK         0.0771 
    129 H129       32.0593   32.6391    6.8471 H         1 UNK         0.0771 
    130 H130       34.9481   30.0463    5.9171 H         1 UNK         0.2980 
    131 H131       35.8089   28.3988    7.0868 H         1 UNK         0.0545 
    132 H132       34.9259   28.1580   10.7377 H         1 UNK         0.3459 
    133 H133       34.9897   26.9458    9.4856 H         1 UNK         0.3459 
    134 H134       34.5558   26.3268    7.6265 H         1 UNK         0.0616 
    135 H135       33.0362   27.1279    7.3548 H         1 UNK         0.0616 
    136 H136       32.1867   27.6319    4.4883 H         1 UNK         0.0634 
    137 H137       31.8247   26.3242    5.5911 H         1 UNK         0.0634 
@<TRIPOS>BOND
     1    1    2 1    
     2    1   72 1    
     3    1   73 1    
     4    1   74 1    
     5    2    3 2    
     6    2    4 am   BACKBONE|DICT|INTERRES
     7    4    5 1    
     8    4   75 1    
     9    5    6 1    
    10    5   35 1    
    11    5   76 1    
    12    6    7 1    
    13    6   77 1    
    14    6   78 1    
    15    7    8 1    
    16    8    9 1    
    17    8   79 1    
    18    8   80 1    
    19    9   10 ar   
    20    9   14 ar   
    21   10   11 ar   
    22   10   81 1    
    23   11   12 ar   
    24   11   71 1    
    25   12   13 ar   
    26   12   82 1    
    27   13   14 ar   
    28   13   15 1    
    29   14   83 1    
    30   15   16 1    
    31   15   84 1    
    32   15   85 1    
    33   16   17 1    
    34   17   18 1    
    35   17   86 1    
    36   17   87 1    
    37   18   19 1    
    38   18   37 1    
    39   18   88 1    
    40   19   20 am   BACKBONE|DICT|INTERRES
    41   19   89 1    
    42   20   21 2    
    43   20   22 1    
    44   22   23 1    
    45   22   24 1    
    46   22   90 1    
    47   23   91 1    
    48   23   92 1    
    49   23   93 1    
    50   24   25 am   BACKBONE|DICT|INTERRES
    51   24   94 1    
    52   25   26 2    
    53   25   27 1    
    54   27   28 1    
    55   27   29 1    
    56   27   95 1    
    57   28   96 1    
    58   28   97 1    
    59   28   98 1    
    60   29   30 am   BACKBONE|DICT|INTERRES
    61   29   99 1    
    62   30   31 2    
    63   30   32 1    
    64   32   33 1    
    65   32   34 1    
    66   32  100 1    
    67   33  101 1    
    68   33  102 1    
    69   33  103 1    
    70   34   35 am   BACKBONE|DICT|INTERRES
    71   34  104 1    
    72   35   36 2    
    73   37   38 2    
    74   37   39 am   BACKBONE|DICT|INTERRES
    75   39   40 1    
    76   39  105 1    
    77   40   41 1    
    78   40   42 1    
    79   40  106 1    
    80   41  107 1    
    81   41  108 1    
    82   41  109 1    
    83   42   43 2    
    84   42   44 am   BACKBONE|DICT|INTERRES
    85   44   45 1    
    86   44  110 1    
    87   45   46 1    
    88   45   47 1    
    89   45  111 1    
    90   46  112 1    
    91   46  113 1    
    92   46  114 1    
    93   47   48 2    
    94   47   49 am   BACKBONE|DICT|INTERRES
    95   49   50 1    
    96   49  115 1    
    97   50   51 1    
    98   50   52 1    
    99   50  116 1    
   100   51  117 1    
   101   51  118 1    
   102   51  119 1    
   103   52   53 2    
   104   52   54 am   BACKBONE|DICT|INTERRES
   105   54   55 1    
   106   54  120 1    
   107   55   56 1    
   108   55   57 1    
   109   55  121 1    
   110   56  122 1    
   111   56  123 1    
   112   56  124 1    
   113   57   58 2    
   114   57   59 am   BACKBONE|DICT|INTERRES
   115   59   60 1    
   116   59  125 1    
   117   60   61 1    
   118   60   62 1    
   119   60  126 1    
   120   61  127 1    
   121   61  128 1    
   122   61  129 1    
   123   62   63 2    
   124   62   64 am   BACKBONE|DICT|INTERRES
   125   64   65 1    
   126   64  130 1    
   127   65   66 1    
   128   65   69 1    
   129   65  131 1    
   130   66   67 am   BACKBONE|DICT|INTERRES
   131   66   68 2    
   132   67  132 1    
   133   67  133 1    
   134   69   70 1    
   135   69  134 1    
   136   69  135 1    
   137   70   71 1    
   138   71  136 1    
   139   71  137 1    
@<TRIPOS>SUBSTRUCTURE
     1 UNK         1 GROUP             0       ****    0 ROOT    
