@<TRIPOS>MOLECULE
3R136
137   139    1
SMALL
USER_CHARGES


@<TRIPOS>ATOM
      1 CA         28.0387   22.3275   -1.6505 C.3       0 UNK        -0.1979 
      2 C          29.0783   23.4367   -1.7035 C.2       0 UNK         0.4864 
      3 O          29.4537   23.8775   -2.7914 O.2       0 UNK        -0.5359 
      4 N          29.5288   23.9109   -0.5368 N.am      1 UNK        -0.4318 
      5 CA         30.4868   25.0083   -0.3835 C.3       1 UNK         0.0824 
      6 C6         31.0914   25.0382    1.0366 C.3       12 UNK        -0.0944 
      7 S7         32.2069   23.6204    1.3097 S.3       12 UNK        -0.2672 
      8 C8         31.1985   22.5480    2.3921 C.3       12 UNK         0.0333 
      9 C9         30.8169   23.1600    3.7407 C.ar      12 UNK        -0.0807 
     10 C10        31.5729   24.1747    4.3392 C.ar      12 UNK        -0.0894 
     11 C11        31.1846   24.7354    5.5573 C.ar      12 UNK        -0.0804 
     12 C12        30.0523   24.2427    6.2126 C.ar      12 UNK        -0.0824 
     13 C13        29.2969   23.2149    5.6372 C.ar      12 UNK        -0.0762 
     14 C14        29.6813   22.6839    4.4021 C.ar      12 UNK        -0.0782 
     15 C15        28.0699   22.6667    6.3515 C.3       12 UNK         0.0230 
     16 S16        26.6952   23.8576    6.3694 S.3       12 UNK        -0.2608 
     17 C17        26.3113   24.0485    4.5884 C.3       12 UNK        -0.0989 
     18 CA         26.9320   25.2810    3.8633 C.3       5 UNK         0.0716 
     19 N          26.1846   25.6222    2.6610 N.am      5 UNK        -0.4135 
     20 C          26.3335   25.1129    1.4372 C.2       4 UNK         0.5031 
     21 O          27.1115   24.1946    1.1671 O.2       4 UNK        -0.5229 
     22 CA         25.4448   25.7242    0.3372 C.3       4 UNK         0.0329 
     23 CB         24.9871   27.1710    0.6347 C.3       4 UNK        -0.2001 
     24 N          26.1365   25.6936   -0.9495 N.am      4 UNK        -0.4303 
     25 C          25.5348   25.5979   -2.1438 C.2       3 UNK         0.5044 
     26 O          24.3158   25.4722   -2.2758 O.2       3 UNK        -0.5152 
     27 CA         26.4276   25.6337   -3.4046 C.3       3 UNK         0.0319 
     28 CB         25.6958   26.1974   -4.6419 C.3       3 UNK        -0.2001 
     29 N          27.7175   26.3041   -3.2005 N.am      3 UNK        -0.4354 
     30 C          27.9352   27.5968   -2.9017 C.2       2 UNK         0.4964 
     31 O          27.0483   28.4499   -2.8473 O.2       2 UNK        -0.5047 
     32 CA         29.3973   27.9822   -2.5781 C.3       2 UNK         0.0288 
     33 CB         29.5101   29.3072   -1.7936 C.3       2 UNK        -0.2113 
     34 N          30.1202   26.8997   -1.8924 N.am      2 UNK        -0.4145 
     35 C          29.7747   26.3255   -0.7291 C.2       1 UNK         0.5006 
     36 O          28.8738   26.7340    0.0054 O.2       1 UNK        -0.5103 
     37 C          26.9506   26.5792    4.6922 C.2       5 UNK         0.5055 
     38 O          25.9885   27.3515    4.6241 O.2       5 UNK        -0.5220 
     39 N          28.0423   26.7983    5.4395 N.am      6 UNK        -0.4450 
     40 CA         28.3025   27.9595    6.3044 C.3       6 UNK         0.0367 
     41 CB         27.2862   28.0252    7.4644 C.3       6 UNK        -0.1929 
     42 C          28.4184   29.2947    5.5373 C.2       6 UNK         0.5070 
     43 O          28.2256   30.3600    6.1258 O.2       6 UNK        -0.5237 
     44 N          28.7458   29.2211    4.2407 N.am      7 UNK        -0.4739 
     45 CA         29.0004   30.3648    3.3721 C.3       7 UNK         0.0276 
     46 CB         28.8133   29.9306    1.9082 C.3       7 UNK        -0.1927 
     47 C          30.4243   30.8733    3.6241 C.2       7 UNK         0.5013 
     48 O          31.3769   30.2305    3.1799 O.2       7 UNK        -0.5193 
     49 N          30.5518   32.0032    4.3336 N.am      8 UNK        -0.4253 
     50 CA         31.8195   32.5928    4.7901 C.3       8 UNK         0.0242 
     51 CB         31.5302   33.9045    5.5369 C.3       8 UNK        -0.2000 
     52 C          32.8739   32.8240    3.6915 C.2       8 UNK         0.4948 
     53 O          34.0671   32.7253    3.9767 O.2       8 UNK        -0.5275 
     54 N          32.4227   33.0756    2.4545 N.am      9 UNK        -0.4246 
     55 CA         33.2645   33.1849    1.2598 C.3       9 UNK         0.0261 
     56 CB         32.4013   33.6559    0.0778 C.3       9 UNK        -0.1959 
     57 C          34.0074   31.8835    0.8947 C.2       9 UNK         0.5033 
     58 O          35.0682   31.9617    0.2729 O.2       9 UNK        -0.5390 
     59 N          33.4503   30.7267    1.2786 N.am      10 UNK        -0.4215 
     60 CA         34.0512   29.4063    1.0961 C.3       10 UNK         0.0240 
     61 CB         32.9923   28.4378    0.5427 C.3       10 UNK        -0.1982 
     62 C          34.6341   28.8781    2.4158 C.2       10 UNK         0.4970 
     63 O          35.7372   28.3306    2.4053 O.2       10 UNK        -0.4916 
     64 N          33.8908   29.0399    3.5188 N.am      11 UNK        -0.4279 
     65 CA         34.2650   28.5617    4.8591 C.3       11 UNK         0.1003 
     66 C          35.4307   29.3438    5.5268 C.2       11 UNK         0.5709 
     67 N          35.6969   30.5924    5.1632 N.am      11 UNK        -0.7358 
     68 O          36.1149   28.7992    6.3900 O.2       11 UNK        -0.4999 
     69 C69        33.0407   28.4822    5.8088 C.3       12 UNK        -0.0954 
     70 S70        31.7305   27.3946    5.1609 S.3       12 UNK        -0.2268 
     71 C71        31.9943   25.8836    6.1371 C.3       12 UNK         0.0203 
     72 H72        27.1098   22.6558   -2.1145 H         1 UNK         0.0888 
     73 H73        28.3984   21.4503   -2.1874 H         1 UNK         0.0888 
     74 H74        27.8160   22.0306   -0.6254 H         1 UNK         0.0888 
     75 H75        29.0722   23.6133    0.3167 H         1 UNK         0.3017 
     76 H76        31.3014   24.8571   -1.0957 H         1 UNK         0.0873 
     77 H77        30.3046   25.0631    1.7931 H         1 UNK         0.0745 
     78 H78        31.6798   25.9428    1.1895 H         1 UNK         0.0745 
     79 H79        30.2984   22.2619    1.8460 H         1 UNK         0.0705 
     80 H80        31.7533   21.6274    2.5770 H         1 UNK         0.0705 
     81 H81        32.4581   24.5581    3.8518 H         1 UNK         0.1334 
     82 H82        29.7520   24.6598    7.1648 H         1 UNK         0.1417 
     83 H83        29.0951   21.8928    3.9538 H         1 UNK         0.1562 
     84 H84        28.3355   22.4211    7.3807 H         1 UNK         0.0748 
     85 H85        27.7319   21.7351    5.8946 H         1 UNK         0.0748 
     86 H86        25.2230   24.1012    4.5229 H         1 UNK         0.0940 
     87 H87        26.5856   23.1363    4.0566 H         1 UNK         0.0940 
     88 H88        27.9618   25.0494    3.5818 H         1 UNK         0.0703 
     89 H89        25.5622   26.4097    2.7997 H         1 UNK         0.3081 
     90 H90        24.5607   25.0860    0.2789 H         1 UNK         0.0719 
     91 H91        24.3527   27.2231    1.5202 H         1 UNK         0.0809 
     92 H92        25.8387   27.8359    0.7887 H         1 UNK         0.0809 
     93 H93        24.4006   27.5774   -0.1896 H         1 UNK         0.0809 
     94 H94        27.1435   25.7950   -0.8923 H         1 UNK         0.2990 
     95 H95        26.6693   24.5931   -3.6235 H         1 UNK         0.0690 
     96 H96        26.3456   26.2088   -5.5169 H         1 UNK         0.0788 
     97 H97        25.3385   27.2139   -4.4747 H         1 UNK         0.0788 
     98 H98        24.8273   25.5878   -4.8945 H         1 UNK         0.0788 
     99 H99        28.5175   25.6783   -3.2053 H         1 UNK         0.2993 
    100 H100       29.8921   28.1246   -3.5401 H         1 UNK         0.0949 
    101 H101       28.9470   29.2694   -0.8618 H         1 UNK         0.0767 
    102 H102       30.5461   29.5437   -1.5527 H         1 UNK         0.0767 
    103 H103       29.1146   30.1402   -2.3758 H         1 UNK         0.0767 
    104 H104       30.8554   26.4645   -2.4336 H         1 UNK         0.3013 
    105 H105       28.7766   26.1024    5.4186 H         1 UNK         0.3121 
    106 H106       29.2821   27.7884    6.7512 H         1 UNK         0.0774 
    107 H107       27.5762   28.7804    8.1959 H         1 UNK         0.0815 
    108 H108       26.2863   28.2822    7.1141 H         1 UNK         0.0815 
    109 H109       27.2233   27.0729    7.9909 H         1 UNK         0.0815 
    110 H110       28.9431   28.3107    3.8526 H         1 UNK         0.2987 
    111 H111       28.2827   31.1586    3.5909 H         1 UNK         0.0949 
    112 H112       27.7936   29.5935    1.7211 H         1 UNK         0.0806 
    113 H113       29.0117   30.7592    1.2274 H         1 UNK         0.0806 
    114 H114       29.4856   29.1156    1.6343 H         1 UNK         0.0806 
    115 H115       29.7093   32.4424    4.6775 H         1 UNK         0.3010 
    116 H116       32.2566   31.8891    5.5010 H         1 UNK         0.0829 
    117 H117       31.0474   34.6390    4.8910 H         1 UNK         0.0813 
    118 H118       32.4521   34.3538    5.9095 H         1 UNK         0.0813 
    119 H119       30.8840   33.7373    6.3989 H         1 UNK         0.0813 
    120 H120       31.4248   33.1434    2.3176 H         1 UNK         0.3038 
    121 H121       34.0216   33.9467    1.4575 H         1 UNK         0.0769 
    122 H122       31.9362   34.6202    0.2837 H         1 UNK         0.0811 
    123 H123       31.6100   32.9419   -0.1547 H         1 UNK         0.0811 
    124 H124       33.0056   33.7762   -0.8226 H         1 UNK         0.0811 
    125 H125       32.5973   30.7529    1.8315 H         1 UNK         0.3204 
    126 H126       34.8664   29.4578    0.3713 H         1 UNK         0.0748 
    127 H127       33.4124   27.4404    0.4073 H         1 UNK         0.0771 
    128 H128       32.1342   28.3495    1.2106 H         1 UNK         0.0771 
    129 H129       32.6257   28.7684   -0.4288 H         1 UNK         0.0771 
    130 H130       32.9689   29.4640    3.4414 H         1 UNK         0.2980 
    131 H131       34.6327   27.5413    4.7335 H         1 UNK         0.0545 
    132 H132       35.1072   31.0939    4.5087 H         1 UNK         0.3459 
    133 H133       36.4623   31.0743    5.6060 H         1 UNK         0.3459 
    134 H134       32.6111   29.4742    5.9564 H         1 UNK         0.0616 
    135 H135       33.3359   28.1278    6.7983 H         1 UNK         0.0616 
    136 H136       33.0535   25.6221    6.1277 H         1 UNK         0.0634 
    137 H137       31.7227   26.0709    7.1771 H         1 UNK         0.0634 
@<TRIPOS>BOND
     1    1    2 1    
     2    1   72 1    
     3    1   73 1    
     4    1   74 1    
     5    2    3 2    
     6    2    4 am   BACKBONE|DICT|INTERRES
     7    4    5 1    
     8    4   75 1    
     9    5    6 1    
    10    5   35 1    
    11    5   76 1    
    12    6    7 1    
    13    6   77 1    
    14    6   78 1    
    15    7    8 1    
    16    8    9 1    
    17    8   79 1    
    18    8   80 1    
    19    9   10 ar   
    20    9   14 ar   
    21   10   11 ar   
    22   10   81 1    
    23   11   12 ar   
    24   11   71 1    
    25   12   13 ar   
    26   12   82 1    
    27   13   14 ar   
    28   13   15 1    
    29   14   83 1    
    30   15   16 1    
    31   15   84 1    
    32   15   85 1    
    33   16   17 1    
    34   17   18 1    
    35   17   86 1    
    36   17   87 1    
    37   18   19 1    
    38   18   37 1    
    39   18   88 1    
    40   19   20 am   BACKBONE|DICT|INTERRES
    41   19   89 1    
    42   20   21 2    
    43   20   22 1    
    44   22   23 1    
    45   22   24 1    
    46   22   90 1    
    47   23   91 1    
    48   23   92 1    
    49   23   93 1    
    50   24   25 am   BACKBONE|DICT|INTERRES
    51   24   94 1    
    52   25   26 2    
    53   25   27 1    
    54   27   28 1    
    55   27   29 1    
    56   27   95 1    
    57   28   96 1    
    58   28   97 1    
    59   28   98 1    
    60   29   30 am   BACKBONE|DICT|INTERRES
    61   29   99 1    
    62   30   31 2    
    63   30   32 1    
    64   32   33 1    
    65   32   34 1    
    66   32  100 1    
    67   33  101 1    
    68   33  102 1    
    69   33  103 1    
    70   34   35 am   BACKBONE|DICT|INTERRES
    71   34  104 1    
    72   35   36 2    
    73   37   38 2    
    74   37   39 am   BACKBONE|DICT|INTERRES
    75   39   40 1    
    76   39  105 1    
    77   40   41 1    
    78   40   42 1    
    79   40  106 1    
    80   41  107 1    
    81   41  108 1    
    82   41  109 1    
    83   42   43 2    
    84   42   44 am   BACKBONE|DICT|INTERRES
    85   44   45 1    
    86   44  110 1    
    87   45   46 1    
    88   45   47 1    
    89   45  111 1    
    90   46  112 1    
    91   46  113 1    
    92   46  114 1    
    93   47   48 2    
    94   47   49 am   BACKBONE|DICT|INTERRES
    95   49   50 1    
    96   49  115 1    
    97   50   51 1    
    98   50   52 1    
    99   50  116 1    
   100   51  117 1    
   101   51  118 1    
   102   51  119 1    
   103   52   53 2    
   104   52   54 am   BACKBONE|DICT|INTERRES
   105   54   55 1    
   106   54  120 1    
   107   55   56 1    
   108   55   57 1    
   109   55  121 1    
   110   56  122 1    
   111   56  123 1    
   112   56  124 1    
   113   57   58 2    
   114   57   59 am   BACKBONE|DICT|INTERRES
   115   59   60 1    
   116   59  125 1    
   117   60   61 1    
   118   60   62 1    
   119   60  126 1    
   120   61  127 1    
   121   61  128 1    
   122   61  129 1    
   123   62   63 2    
   124   62   64 am   BACKBONE|DICT|INTERRES
   125   64   65 1    
   126   64  130 1    
   127   65   66 1    
   128   65   69 1    
   129   65  131 1    
   130   66   67 am   BACKBONE|DICT|INTERRES
   131   66   68 2    
   132   67  132 1    
   133   67  133 1    
   134   69   70 1    
   135   69  134 1    
   136   69  135 1    
   137   70   71 1    
   138   71  136 1    
   139   71  137 1    
@<TRIPOS>SUBSTRUCTURE
     1 UNK         1 GROUP             0       ****    0 ROOT    
