@<TRIPOS>MOLECULE
3R136
137   139    1
SMALL
USER_CHARGES


@<TRIPOS>ATOM
      1 CA         27.6049   21.9604    1.2281 C.3       0 UNK        -0.1979 
      2 C          27.7224   22.4110   -0.2198 C.2       0 UNK         0.4864 
      3 O          26.7885   22.2149   -0.9988 O.2       0 UNK        -0.5359 
      4 N          28.8649   23.0048   -0.5849 N.am      1 UNK        -0.4318 
      5 CA         29.1071   23.6181   -1.8934 C.3       1 UNK         0.0824 
      6 C6         30.6222   23.6754   -2.2251 C.3       12 UNK        -0.0944 
      7 S7         31.6137   24.6256   -1.0196 S.3       12 UNK        -0.2672 
      8 C8         32.3642   23.3067   -0.0144 C.3       12 UNK         0.0333 
      9 C9         32.3871   23.6926    1.4566 C.ar      12 UNK        -0.0807 
     10 C10        33.1971   24.7448    1.8920 C.ar      12 UNK        -0.0894 
     11 C11        33.2299   25.1058    3.2414 C.ar      12 UNK        -0.0804 
     12 C12        32.4450   24.4036    4.1623 C.ar      12 UNK        -0.0824 
     13 C13        31.6271   23.3514    3.7378 C.ar      12 UNK        -0.0762 
     14 C14        31.6069   22.9972    2.3852 C.ar      12 UNK        -0.0782 
     15 C15        30.7788   22.5778    4.7365 C.3       12 UNK         0.0230 
     16 S16        29.0084   22.9732    4.5750 S.3       12 UNK        -0.2608 
     17 C17        28.9196   24.6450    5.2988 C.3       12 UNK        -0.0989 
     18 CA         28.7590   25.7620    4.2377 C.3       5 UNK         0.0716 
     19 N          27.5806   25.5565    3.3841 N.am      5 UNK        -0.4135 
     20 C          27.2088   26.3664    2.3826 C.2       4 UNK         0.5031 
     21 O          27.8965   27.3048    1.9680 O.2       4 UNK        -0.5229 
     22 CA         25.8020   26.1402    1.8088 C.3       4 UNK         0.0329 
     23 CB         24.7465   26.5217    2.8737 C.3       4 UNK        -0.2001 
     24 N          25.6613   26.9620    0.6061 N.am      4 UNK        -0.4303 
     25 C          24.5805   27.1028   -0.1724 C.2       3 UNK         0.5044 
     26 O          23.5214   26.4959   -0.0086 O.2       3 UNK        -0.5152 
     27 CA         24.6990   28.0974   -1.3413 C.3       3 UNK         0.0319 
     28 CB         24.6013   29.5479   -0.8406 C.3       3 UNK        -0.2001 
     29 N          25.9400   27.9256   -2.0960 N.am      3 UNK        -0.4354 
     30 C          26.1908   26.8945   -2.9132 C.2       2 UNK         0.4964 
     31 O          25.3603   26.0298   -3.1994 O.2       2 UNK        -0.5047 
     32 CA         27.6061   26.7940   -3.5181 C.3       2 UNK         0.0288 
     33 CB         28.5504   27.9593   -3.1362 C.3       2 UNK        -0.2113 
     34 N          28.2284   25.5036   -3.1960 N.am      2 UNK        -0.4145 
     35 C          28.4416   25.0092   -1.9661 C.2       1 UNK         0.5006 
     36 O          28.1592   25.6091   -0.9254 O.2       1 UNK        -0.5103 
     37 C          28.6808   27.1363    4.9380 C.2       5 UNK         0.5055 
     38 O          27.5869   27.5628    5.3178 O.2       5 UNK        -0.5220 
     39 N          29.8282   27.8140    5.0672 N.am      6 UNK        -0.4450 
     40 CA         30.0166   29.1888    5.5572 C.3       6 UNK         0.0367 
     41 CB         29.4681   29.3962    6.9817 C.3       6 UNK        -0.1929 
     42 C          29.5132   30.2700    4.5864 C.2       6 UNK         0.5070 
     43 O          30.2198   31.2538    4.3715 O.2       6 UNK        -0.5237 
     44 N          28.3468   30.0614    3.9633 N.am      7 UNK        -0.4739 
     45 CA         27.8195   30.9126    2.8918 C.3       7 UNK         0.0276 
     46 CB         26.3769   30.4955    2.5657 C.3       7 UNK        -0.1927 
     47 C          28.7025   30.8951    1.6284 C.2       7 UNK         0.5013 
     48 O          28.7773   31.9084    0.9331 O.2       7 UNK        -0.5193 
     49 N          29.3634   29.7560    1.3744 N.am      8 UNK        -0.4253 
     50 CA         30.3182   29.5396    0.2895 C.3       8 UNK         0.0242 
     51 CB         30.7482   28.0617    0.2711 C.3       8 UNK        -0.2000 
     52 C          31.5504   30.4595    0.3453 C.2       8 UNK         0.4948 
     53 O          31.8366   31.1270   -0.6502 O.2       8 UNK        -0.5275 
     54 N          32.2763   30.4590    1.4750 N.am      9 UNK        -0.4246 
     55 CA         33.5837   31.1172    1.5929 C.3       9 UNK         0.0261 
     56 CB         34.6549   30.2973    0.8357 C.3       9 UNK        -0.1959 
     57 C          33.9916   31.3920    3.0516 C.2       9 UNK         0.5033 
     58 O          35.1645   31.2174    3.3905 O.2       9 UNK        -0.5390 
     59 N          33.0389   31.8015    3.9036 N.am      10 UNK        -0.4215 
     60 CA         33.1733   32.1245    5.3376 C.3       10 UNK         0.0240 
     61 CB         34.1927   33.2537    5.5906 C.3       10 UNK        -0.1982 
     62 C          33.4488   30.9021    6.2320 C.2       10 UNK         0.4970 
     63 O          32.7582   30.7267    7.2356 O.2       10 UNK        -0.4916 
     64 N          34.4143   30.0687    5.8296 N.am      11 UNK        -0.4279 
     65 CA         34.7104   28.7264    6.3587 C.3       11 UNK         0.1003 
     66 C          35.1927   28.6816    7.8407 C.2       11 UNK         0.5709 
     67 N          35.6540   29.7853    8.4166 N.am      11 UNK        -0.7358 
     68 O          35.1860   27.6262    8.4704 O.2       11 UNK        -0.4999 
     69 C69        33.5722   27.7080    6.0527 C.3       12 UNK        -0.0954 
     70 S70        33.1436   27.6651    4.2738 S.3       12 UNK        -0.2268 
     71 C71        34.1243   26.2469    3.6984 C.3       12 UNK         0.0203 
     72 H72        28.5494   22.0606    1.7602 H         1 UNK         0.0888 
     73 H73        26.8564   22.5572    1.7482 H         1 UNK         0.0888 
     74 H74        27.3019   20.9148    1.2750 H         1 UNK         0.0888 
     75 H75        29.5669   23.2106    0.1103 H         1 UNK         0.3017 
     76 H76        28.6293   22.9935   -2.6516 H         1 UNK         0.0873 
     77 H77        31.0199   22.6628   -2.3075 H         1 UNK         0.0745 
     78 H78        30.7774   24.1203   -3.2096 H         1 UNK         0.0745 
     79 H79        33.3818   23.1257   -0.3633 H         1 UNK         0.0705 
     80 H80        31.8220   22.3699   -0.1500 H         1 UNK         0.0705 
     81 H81        33.7990   25.2842    1.1731 H         1 UNK         0.1334 
     82 H82        32.4729   24.6797    5.2075 H         1 UNK         0.1417 
     83 H83        30.9837   22.1751    2.0618 H         1 UNK         0.1562 
     84 H84        31.1068   22.7636    5.7604 H         1 UNK         0.0748 
     85 H85        30.9143   21.5086    4.5664 H         1 UNK         0.0748 
     86 H86        29.8097   24.8195    5.9065 H         1 UNK         0.0940 
     87 H87        28.0784   24.6580    5.9952 H         1 UNK         0.0940 
     88 H88        29.6345   25.7541    3.5841 H         1 UNK         0.0703 
     89 H89        26.9535   24.8236    3.6784 H         1 UNK         0.3081 
     90 H90        25.6998   25.0902    1.5293 H         1 UNK         0.0719 
     91 H91        24.7892   27.5845    3.1153 H         1 UNK         0.0809 
     92 H92        23.7328   26.2938    2.5468 H         1 UNK         0.0809 
     93 H93        24.8985   25.9743    3.8046 H         1 UNK         0.0809 
     94 H94        26.5159   27.4523    0.3684 H         1 UNK         0.2990 
     95 H95        23.8588   27.9184   -2.0161 H         1 UNK         0.0690 
     96 H96        24.5548   30.2506   -1.6728 H         1 UNK         0.0788 
     97 H97        25.4554   29.8208   -0.2209 H         1 UNK         0.0788 
     98 H98        23.7011   29.6958   -0.2421 H         1 UNK         0.0788 
     99 H99        26.6831   28.5849   -1.9177 H         1 UNK         0.2993 
    100 H100       27.4739   26.8162   -4.6010 H         1 UNK         0.0949 
    101 H101       28.7249   28.0125   -2.0614 H         1 UNK         0.0767 
    102 H102       29.5222   27.8455   -3.6168 H         1 UNK         0.0767 
    103 H103       28.1483   28.9202   -3.4602 H         1 UNK         0.0767 
    104 H104       28.4666   24.9282   -3.9917 H         1 UNK         0.3013 
    105 H105       30.6713   27.3844    4.7077 H         1 UNK         0.3121 
    106 H106       31.0941   29.3254    5.6123 H         1 UNK         0.0774 
    107 H107       29.7620   30.3741    7.3653 H         1 UNK         0.0815 
    108 H108       28.3797   29.3510    7.0180 H         1 UNK         0.0815 
    109 H109       29.8620   28.6487    7.6700 H         1 UNK         0.0815 
    110 H110       27.8231   29.2260    4.2058 H         1 UNK         0.2987 
    111 H111       27.8023   31.9399    3.2624 H         1 UNK         0.0949 
    112 H112       25.9442   31.1546    1.8122 H         1 UNK         0.0806 
    113 H113       26.3264   29.4778    2.1795 H         1 UNK         0.0806 
    114 H114       25.7384   30.5507    3.4474 H         1 UNK         0.0806 
    115 H115       29.1229   28.9428    1.9317 H         1 UNK         0.3010 
    116 H116       29.7959   29.7510   -0.6455 H         1 UNK         0.0829 
    117 H117       29.8963   27.4018    0.1089 H         1 UNK         0.0813 
    118 H118       31.4578   27.8692   -0.5348 H         1 UNK         0.0813 
    119 H119       31.2246   27.7592    1.2045 H         1 UNK         0.0813 
    120 H120       31.9774   29.8921    2.2566 H         1 UNK         0.3038 
    121 H121       33.5162   32.1002    1.1220 H         1 UNK         0.0769 
    122 H122       35.6286   30.7877    0.8717 H         1 UNK         0.0811 
    123 H123       34.4047   30.1767   -0.2181 H         1 UNK         0.0811 
    124 H124       34.7721   29.3026    1.2676 H         1 UNK         0.0811 
    125 H125       32.0815   31.8459    3.5691 H         1 UNK         0.3204 
    126 H126       32.1977   32.5094    5.6383 H         1 UNK         0.0748 
    127 H127       34.1831   33.5547    6.6390 H         1 UNK         0.0771 
    128 H128       35.2130   32.9522    5.3527 H         1 UNK         0.0771 
    129 H129       33.9580   34.1379    4.9982 H         1 UNK         0.0771 
    130 H130       34.9174   30.3335    4.9856 H         1 UNK         0.2980 
    131 H131       35.5820   28.3954    5.7934 H         1 UNK         0.0545 
    132 H132       35.9754   29.7487    9.3709 H         1 UNK         0.3459 
    133 H133       35.6675   30.6553    7.9092 H         1 UNK         0.3459 
    134 H134       32.6770   27.9606    6.6216 H         1 UNK         0.0616 
    135 H135       33.8486   26.7039    6.3774 H         1 UNK         0.0616 
    136 H136       34.8000   25.8917    4.4770 H         1 UNK         0.0634 
    137 H137       34.7625   26.5868    2.8813 H         1 UNK         0.0634 
@<TRIPOS>BOND
     1    1    2 1    
     2    1   72 1    
     3    1   73 1    
     4    1   74 1    
     5    2    3 2    
     6    2    4 am   BACKBONE|DICT|INTERRES
     7    4    5 1    
     8    4   75 1    
     9    5    6 1    
    10    5   35 1    
    11    5   76 1    
    12    6    7 1    
    13    6   77 1    
    14    6   78 1    
    15    7    8 1    
    16    8    9 1    
    17    8   79 1    
    18    8   80 1    
    19    9   10 ar   
    20    9   14 ar   
    21   10   11 ar   
    22   10   81 1    
    23   11   12 ar   
    24   11   71 1    
    25   12   13 ar   
    26   12   82 1    
    27   13   14 ar   
    28   13   15 1    
    29   14   83 1    
    30   15   16 1    
    31   15   84 1    
    32   15   85 1    
    33   16   17 1    
    34   17   18 1    
    35   17   86 1    
    36   17   87 1    
    37   18   19 1    
    38   18   37 1    
    39   18   88 1    
    40   19   20 am   BACKBONE|DICT|INTERRES
    41   19   89 1    
    42   20   21 2    
    43   20   22 1    
    44   22   23 1    
    45   22   24 1    
    46   22   90 1    
    47   23   91 1    
    48   23   92 1    
    49   23   93 1    
    50   24   25 am   BACKBONE|DICT|INTERRES
    51   24   94 1    
    52   25   26 2    
    53   25   27 1    
    54   27   28 1    
    55   27   29 1    
    56   27   95 1    
    57   28   96 1    
    58   28   97 1    
    59   28   98 1    
    60   29   30 am   BACKBONE|DICT|INTERRES
    61   29   99 1    
    62   30   31 2    
    63   30   32 1    
    64   32   33 1    
    65   32   34 1    
    66   32  100 1    
    67   33  101 1    
    68   33  102 1    
    69   33  103 1    
    70   34   35 am   BACKBONE|DICT|INTERRES
    71   34  104 1    
    72   35   36 2    
    73   37   38 2    
    74   37   39 am   BACKBONE|DICT|INTERRES
    75   39   40 1    
    76   39  105 1    
    77   40   41 1    
    78   40   42 1    
    79   40  106 1    
    80   41  107 1    
    81   41  108 1    
    82   41  109 1    
    83   42   43 2    
    84   42   44 am   BACKBONE|DICT|INTERRES
    85   44   45 1    
    86   44  110 1    
    87   45   46 1    
    88   45   47 1    
    89   45  111 1    
    90   46  112 1    
    91   46  113 1    
    92   46  114 1    
    93   47   48 2    
    94   47   49 am   BACKBONE|DICT|INTERRES
    95   49   50 1    
    96   49  115 1    
    97   50   51 1    
    98   50   52 1    
    99   50  116 1    
   100   51  117 1    
   101   51  118 1    
   102   51  119 1    
   103   52   53 2    
   104   52   54 am   BACKBONE|DICT|INTERRES
   105   54   55 1    
   106   54  120 1    
   107   55   56 1    
   108   55   57 1    
   109   55  121 1    
   110   56  122 1    
   111   56  123 1    
   112   56  124 1    
   113   57   58 2    
   114   57   59 am   BACKBONE|DICT|INTERRES
   115   59   60 1    
   116   59  125 1    
   117   60   61 1    
   118   60   62 1    
   119   60  126 1    
   120   61  127 1    
   121   61  128 1    
   122   61  129 1    
   123   62   63 2    
   124   62   64 am   BACKBONE|DICT|INTERRES
   125   64   65 1    
   126   64  130 1    
   127   65   66 1    
   128   65   69 1    
   129   65  131 1    
   130   66   67 am   BACKBONE|DICT|INTERRES
   131   66   68 2    
   132   67  132 1    
   133   67  133 1    
   134   69   70 1    
   135   69  134 1    
   136   69  135 1    
   137   70   71 1    
   138   71  136 1    
   139   71  137 1    
@<TRIPOS>SUBSTRUCTURE
     1 UNK         1 GROUP             0       ****    0 ROOT    
