@<TRIPOS>MOLECULE
3R136
137   139    1
SMALL
USER_CHARGES


@<TRIPOS>ATOM
      1 CA         27.8605   21.8113    3.5232 C.3       0 UNK        -0.1979 
      2 C          27.7676   21.0812    2.1930 C.2       0 UNK         0.4864 
      3 O          26.7380   20.4718    1.9015 O.2       0 UNK        -0.5359 
      4 N          28.8313   21.1448    1.3793 N.am      1 UNK        -0.4318 
      5 CA         28.8790   20.5693    0.0290 C.3       1 UNK         0.0824 
      6 C6         30.3376   20.3537   -0.4520 C.3       12 UNK        -0.0944 
      7 S7         31.3120   21.8921   -0.6499 S.3       12 UNK        -0.2672 
      8 C8         32.4771   21.8388    0.7485 C.3       12 UNK         0.0333 
      9 C9         32.2941   23.0397    1.6650 C.ar      12 UNK        -0.0807 
     10 C10        32.7593   24.2968    1.2689 C.ar      12 UNK        -0.0894 
     11 C11        32.6352   25.4005    2.1171 C.ar      12 UNK        -0.0804 
     12 C12        32.0428   25.2402    3.3733 C.ar      12 UNK        -0.0824 
     13 C13        31.5492   23.9924    3.7733 C.ar      12 UNK        -0.0762 
     14 C14        31.6881   22.8950    2.9162 C.ar      12 UNK        -0.0782 
     15 C15        30.8913   23.7951    5.1373 C.3       12 UNK         0.0230 
     16 S16        29.7249   25.1094    5.6443 S.3       12 UNK        -0.2608 
     17 C17        28.7496   25.4956    4.1440 C.3       12 UNK        -0.0989 
     18 CA         28.9266   26.9853    3.7457 C.3       5 UNK         0.0716 
     19 N          28.8538   27.1921    2.2949 N.am      5 UNK        -0.4135 
     20 C          29.2654   28.3146    1.6855 C.2       4 UNK         0.5031 
     21 O          29.7707   29.2653    2.2827 O.2       4 UNK        -0.5229 
     22 CA         29.0347   28.4356    0.1692 C.3       4 UNK         0.0329 
     23 CB         30.2663   27.9182   -0.5905 C.3       4 UNK        -0.2001 
     24 N          27.8351   27.7484   -0.3197 N.am      4 UNK        -0.4303 
     25 C          26.5881   27.8906    0.1560 C.2       3 UNK         0.5044 
     26 O          26.2900   28.6733    1.0576 O.2       3 UNK        -0.5152 
     27 CA         25.4918   26.9773   -0.4237 C.3       3 UNK         0.0319 
     28 CB         24.5915   27.7737   -1.3810 C.3       3 UNK        -0.2001 
     29 N          25.9813   25.7733   -1.1081 N.am      3 UNK        -0.4354 
     30 C          26.7496   24.8192   -0.5635 C.2       2 UNK         0.4964 
     31 O          27.1761   24.8538    0.5971 O.2       2 UNK        -0.5047 
     32 CA         27.1464   23.6656   -1.4932 C.3       2 UNK         0.0288 
     33 CB         28.0498   24.1551   -2.6435 C.3       2 UNK        -0.2113 
     34 N          27.8588   22.6779   -0.6977 N.am      2 UNK        -0.4145 
     35 C          28.0534   21.3876   -0.9903 C.2       1 UNK         0.5006 
     36 O          27.6219   20.8407   -2.0073 O.2       1 UNK        -0.5103 
     37 C          27.9799   27.9169    4.5416 C.2       5 UNK         0.5055 
     38 O          28.2714   28.2213    5.6983 O.2       5 UNK        -0.5220 
     39 N          26.8844   28.3724    3.9183 N.am      6 UNK        -0.4450 
     40 CA         25.9635   29.3532    4.4923 C.3       6 UNK         0.0367 
     41 CB         24.5206   28.9900    4.1025 C.3       6 UNK        -0.1929 
     42 C          26.3081   30.7739    4.0217 C.2       6 UNK         0.5070 
     43 O          26.2949   31.6997    4.8328 O.2       6 UNK        -0.5237 
     44 N          26.5855   30.9256    2.7192 N.am      7 UNK        -0.4739 
     45 CA         26.7986   32.2141    2.0588 C.3       7 UNK         0.0276 
     46 CB         26.6682   32.0315    0.5380 C.3       7 UNK        -0.1927 
     47 C          28.1356   32.8860    2.4086 C.2       7 UNK         0.5013 
     48 O          28.1652   34.1106    2.5405 O.2       7 UNK        -0.5193 
     49 N          29.2080   32.0928    2.5320 N.am      8 UNK        -0.4253 
     50 CA         30.5637   32.5735    2.8100 C.3       8 UNK         0.0242 
     51 CB         31.4949   32.1922    1.6458 C.3       8 UNK        -0.2000 
     52 C          31.1043   32.0204    4.1333 C.2       8 UNK         0.4948 
     53 O          31.7660   32.7616    4.8609 O.2       8 UNK        -0.5275 
     54 N          30.8551   30.7307    4.4104 N.am      9 UNK        -0.4246 
     55 CA         31.2845   29.9372    5.5756 C.3       9 UNK         0.0261 
     56 CB         30.7438   30.5173    6.8966 C.3       9 UNK        -0.1959 
     57 C          32.8022   29.6903    5.6435 C.2       9 UNK         0.5033 
     58 O          33.2220   28.5446    5.8019 O.2       9 UNK        -0.5390 
     59 N          33.5943   30.7544    5.4700 N.am      10 UNK        -0.4215 
     60 CA         35.0504   30.7275    5.3035 C.3       10 UNK         0.0240 
     61 CB         35.6141   32.1026    5.7013 C.3       10 UNK        -0.1982 
     62 C          35.4880   30.3503    3.8721 C.2       10 UNK         0.4970 
     63 O          36.6894   30.2455    3.6239 O.2       10 UNK        -0.4916 
     64 N          34.5175   30.1740    2.9638 N.am      11 UNK        -0.4279 
     65 CA         34.6731   29.8013    1.5469 C.3       11 UNK         0.1003 
     66 C          35.2457   30.9257    0.6316 C.2       11 UNK         0.5709 
     67 N          35.3902   32.1592    1.1016 N.am      11 UNK        -0.7358 
     68 O          35.5310   30.6864   -0.5393 O.2       11 UNK        -0.4999 
     69 C69        35.3968   28.4391    1.3262 C.3       12 UNK        -0.0954 
     70 S70        34.8012   27.0720    2.3783 S.3       12 UNK        -0.2268 
     71 C71        33.1548   26.7598    1.6785 C.3       12 UNK         0.0203 
     72 H72        27.9361   21.0972    4.3427 H         1 UNK         0.0888 
     73 H73        28.7263   22.4681    3.5574 H         1 UNK         0.0888 
     74 H74        26.9718   22.4219    3.6808 H         1 UNK         0.0888 
     75 H75        29.6512   21.6648    1.6550 H         1 UNK         0.3017 
     76 H76        28.4104   19.5836    0.0768 H         1 UNK         0.0873 
     77 H77        30.8499   19.6701    0.2258 H         1 UNK         0.0745 
     78 H78        30.3338   19.8416   -1.4162 H         1 UNK         0.0745 
     79 H79        32.3750   20.9097    1.3101 H         1 UNK         0.0705 
     80 H80        33.4944   21.8386    0.3544 H         1 UNK         0.0705 
     81 H81        33.2285   24.4116    0.3011 H         1 UNK         0.1334 
     82 H82        31.9698   26.0885    4.0399 H         1 UNK         0.1417 
     83 H83        31.3416   21.9206    3.2330 H         1 UNK         0.1562 
     84 H84        31.6776   23.7283    5.8902 H         1 UNK         0.0748 
     85 H85        30.3622   22.8424    5.1755 H         1 UNK         0.0748 
     86 H86        27.7010   25.2452    4.3176 H         1 UNK         0.0940 
     87 H87        29.0695   24.8452    3.3301 H         1 UNK         0.0940 
     88 H88        29.9392   27.2845    4.0217 H         1 UNK         0.0703 
     89 H89        28.4267   26.4587    1.7421 H         1 UNK         0.3081 
     90 H90        28.9156   29.4963   -0.0567 H         1 UNK         0.0719 
     91 H91        30.4298   26.8529   -0.4197 H         1 UNK         0.0809 
     92 H92        30.1665   28.0754   -1.6646 H         1 UNK         0.0809 
     93 H93        31.1690   28.4423   -0.2727 H         1 UNK         0.0809 
     94 H94        27.9733   27.0781   -1.0610 H         1 UNK         0.2990 
     95 H95        24.8828   26.6445    0.4193 H         1 UNK         0.0690 
     96 H96        23.7412   27.1789   -1.7152 H         1 UNK         0.0788 
     97 H97        25.1373   28.1084   -2.2642 H         1 UNK         0.0788 
     98 H98        24.1886   28.6619   -0.8914 H         1 UNK         0.0788 
     99 H99        25.6930   25.6635   -2.0702 H         1 UNK         0.2993 
    100 H100       26.2358   23.2152   -1.8941 H         1 UNK         0.0949 
    101 H101       28.3452   23.3314   -3.2937 H         1 UNK         0.0767 
    102 H102       27.5402   24.8869   -3.2711 H         1 UNK         0.0767 
    103 H103       28.9616   24.6212   -2.2669 H         1 UNK         0.0767 
    104 H104       28.1914   23.0370    0.1883 H         1 UNK         0.3013 
    105 H105       26.7322   28.1332    2.9447 H         1 UNK         0.3121 
    106 H106       26.0259   29.3371    5.5827 H         1 UNK         0.0774 
    107 H107       24.3764   28.9893    3.0214 H         1 UNK         0.0815 
    108 H108       23.8124   29.7040    4.5249 H         1 UNK         0.0815 
    109 H109       24.2473   28.0034    4.4766 H         1 UNK         0.0815 
    110 H110       26.5298   30.1095    2.1125 H         1 UNK         0.2987 
    111 H111       26.0031   32.8888    2.3836 H         1 UNK         0.0949 
    112 H112       27.4262   31.3541    0.1450 H         1 UNK         0.0806 
    113 H113       25.6910   31.6297    0.2692 H         1 UNK         0.0806 
    114 H114       26.7810   32.9843    0.0188 H         1 UNK         0.0806 
    115 H115       29.0963   31.0904    2.4195 H         1 UNK         0.3010 
    116 H116       30.5730   33.6621    2.8971 H         1 UNK         0.0829 
    117 H117       31.5440   31.1137    1.4949 H         1 UNK         0.0813 
    118 H118       31.1589   32.6420    0.7115 H         1 UNK         0.0813 
    119 H119       32.5103   32.5470    1.8259 H         1 UNK         0.0813 
    120 H120       30.3731   30.1920    3.6918 H         1 UNK         0.3038 
    121 H121       30.8264   28.9571    5.4462 H         1 UNK         0.0769 
    122 H122       30.9879   29.8632    7.7345 H         1 UNK         0.0811 
    123 H123       31.1612   31.4993    7.1199 H         1 UNK         0.0811 
    124 H124       29.6580   30.6120    6.8670 H         1 UNK         0.0811 
    125 H125       33.1276   31.6528    5.3457 H         1 UNK         0.3204 
    126 H126       35.4668   29.9761    5.9775 H         1 UNK         0.0748 
    127 H127       36.7026   32.1178    5.6299 H         1 UNK         0.0771 
    128 H128       35.2326   32.8969    5.0582 H         1 UNK         0.0771 
    129 H129       35.3565   32.3527    6.7307 H         1 UNK         0.0771 
    130 H130       33.5670   30.2872    3.2774 H         1 UNK         0.2980 
    131 H131       33.6516   29.6704    1.1897 H         1 UNK         0.0545 
    132 H132       35.7505   32.8772    0.4932 H         1 UNK         0.3459 
    133 H133       35.1724   32.3724    2.0605 H         1 UNK         0.3459 
    134 H134       35.3068   28.1244    0.2850 H         1 UNK         0.0616 
    135 H135       36.4665   28.5490    1.5110 H         1 UNK         0.0616 
    136 H136       33.2012   26.8125    0.5896 H         1 UNK         0.0634 
    137 H137       32.4686   27.5445    2.0014 H         1 UNK         0.0634 
@<TRIPOS>BOND
     1    1    2 1    
     2    1   72 1    
     3    1   73 1    
     4    1   74 1    
     5    2    3 2    
     6    2    4 am   BACKBONE|DICT|INTERRES
     7    4    5 1    
     8    4   75 1    
     9    5    6 1    
    10    5   35 1    
    11    5   76 1    
    12    6    7 1    
    13    6   77 1    
    14    6   78 1    
    15    7    8 1    
    16    8    9 1    
    17    8   79 1    
    18    8   80 1    
    19    9   10 ar   
    20    9   14 ar   
    21   10   11 ar   
    22   10   81 1    
    23   11   12 ar   
    24   11   71 1    
    25   12   13 ar   
    26   12   82 1    
    27   13   14 ar   
    28   13   15 1    
    29   14   83 1    
    30   15   16 1    
    31   15   84 1    
    32   15   85 1    
    33   16   17 1    
    34   17   18 1    
    35   17   86 1    
    36   17   87 1    
    37   18   19 1    
    38   18   37 1    
    39   18   88 1    
    40   19   20 am   BACKBONE|DICT|INTERRES
    41   19   89 1    
    42   20   21 2    
    43   20   22 1    
    44   22   23 1    
    45   22   24 1    
    46   22   90 1    
    47   23   91 1    
    48   23   92 1    
    49   23   93 1    
    50   24   25 am   BACKBONE|DICT|INTERRES
    51   24   94 1    
    52   25   26 2    
    53   25   27 1    
    54   27   28 1    
    55   27   29 1    
    56   27   95 1    
    57   28   96 1    
    58   28   97 1    
    59   28   98 1    
    60   29   30 am   BACKBONE|DICT|INTERRES
    61   29   99 1    
    62   30   31 2    
    63   30   32 1    
    64   32   33 1    
    65   32   34 1    
    66   32  100 1    
    67   33  101 1    
    68   33  102 1    
    69   33  103 1    
    70   34   35 am   BACKBONE|DICT|INTERRES
    71   34  104 1    
    72   35   36 2    
    73   37   38 2    
    74   37   39 am   BACKBONE|DICT|INTERRES
    75   39   40 1    
    76   39  105 1    
    77   40   41 1    
    78   40   42 1    
    79   40  106 1    
    80   41  107 1    
    81   41  108 1    
    82   41  109 1    
    83   42   43 2    
    84   42   44 am   BACKBONE|DICT|INTERRES
    85   44   45 1    
    86   44  110 1    
    87   45   46 1    
    88   45   47 1    
    89   45  111 1    
    90   46  112 1    
    91   46  113 1    
    92   46  114 1    
    93   47   48 2    
    94   47   49 am   BACKBONE|DICT|INTERRES
    95   49   50 1    
    96   49  115 1    
    97   50   51 1    
    98   50   52 1    
    99   50  116 1    
   100   51  117 1    
   101   51  118 1    
   102   51  119 1    
   103   52   53 2    
   104   52   54 am   BACKBONE|DICT|INTERRES
   105   54   55 1    
   106   54  120 1    
   107   55   56 1    
   108   55   57 1    
   109   55  121 1    
   110   56  122 1    
   111   56  123 1    
   112   56  124 1    
   113   57   58 2    
   114   57   59 am   BACKBONE|DICT|INTERRES
   115   59   60 1    
   116   59  125 1    
   117   60   61 1    
   118   60   62 1    
   119   60  126 1    
   120   61  127 1    
   121   61  128 1    
   122   61  129 1    
   123   62   63 2    
   124   62   64 am   BACKBONE|DICT|INTERRES
   125   64   65 1    
   126   64  130 1    
   127   65   66 1    
   128   65   69 1    
   129   65  131 1    
   130   66   67 am   BACKBONE|DICT|INTERRES
   131   66   68 2    
   132   67  132 1    
   133   67  133 1    
   134   69   70 1    
   135   69  134 1    
   136   69  135 1    
   137   70   71 1    
   138   71  136 1    
   139   71  137 1    
@<TRIPOS>SUBSTRUCTURE
     1 UNK         1 GROUP             0       ****    0 ROOT    
