@<TRIPOS>MOLECULE
3R136
137   139    1
SMALL
USER_CHARGES


@<TRIPOS>ATOM
      1 CA         27.9657   28.9088   -1.0078 C.3       0 UNK        -0.1979 
      2 C          28.2015   27.5193   -0.4373 C.2       0 UNK         0.4864 
      3 O          27.4038   27.0470    0.3752 O.2       0 UNK        -0.5359 
      4 N          29.2955   26.8696   -0.8596 N.am      1 UNK        -0.4318 
      5 CA         29.7228   25.5217   -0.4627 C.3       1 UNK         0.0824 
      6 C6         31.1353   25.2059   -1.0396 C.3       12 UNK        -0.0944 
      7 S7         31.6514   23.4508   -1.0522 S.3       12 UNK        -0.2672 
      8 C8         32.8846   23.3989    0.2847 C.3       12 UNK         0.0333 
      9 C9         32.2584   23.5544    1.6634 C.ar      12 UNK        -0.0807 
     10 C10        32.6532   24.6018    2.5015 C.ar      12 UNK        -0.0894 
     11 C11        32.1159   24.7213    3.7864 C.ar      12 UNK        -0.0804 
     12 C12        31.1799   23.7848    4.2310 C.ar      12 UNK        -0.0824 
     13 C13        30.7638   22.7420    3.3976 C.ar      12 UNK        -0.0762 
     14 C14        31.3115   22.6290    2.1168 C.ar      12 UNK        -0.0782 
     15 C15        29.7375   21.7281    3.8874 C.3       12 UNK         0.0230 
     16 S16        28.0417   22.1520    3.3677 S.3       12 UNK        -0.2608 
     17 C17        27.7684   23.7217    4.2555 C.3       12 UNK        -0.0989 
     18 CA         27.8062   24.9349    3.2814 C.3       5 UNK         0.0716 
     19 N          26.6025   25.0297    2.4390 N.am      5 UNK        -0.4135 
     20 C          25.3706   25.3434    2.8740 C.2       4 UNK         0.5031 
     21 O          25.0909   25.4762    4.0670 O.2       4 UNK        -0.5229 
     22 CA         24.2520   25.5727    1.8434 C.3       4 UNK         0.0329 
     23 CB         23.4067   26.8149    2.2059 C.3       4 UNK        -0.2001 
     24 N          24.7215   25.6928    0.4589 N.am      4 UNK        -0.4303 
     25 C          23.9346   25.4418   -0.5991 C.2       3 UNK         0.5044 
     26 O          22.7963   24.9777   -0.5143 O.2       3 UNK        -0.5152 
     27 CA         24.4896   25.7864   -1.9890 C.3       3 UNK         0.0319 
     28 CB         24.5879   27.3092   -2.1785 C.3       3 UNK        -0.2001 
     29 N          25.7859   25.1630   -2.2431 N.am      3 UNK        -0.4354 
     30 C          25.9719   23.8502   -2.4465 C.2       2 UNK         0.4964 
     31 O          25.0602   23.0229   -2.4721 O.2       2 UNK        -0.5047 
     32 CA         27.4176   23.3743   -2.6777 C.3       2 UNK         0.0288 
     33 CB         27.6835   23.1643   -4.1775 C.3       2 UNK        -0.2113 
     34 N          28.4287   24.2855   -2.1356 N.am      2 UNK        -0.4145 
     35 C          28.6374   24.4873   -0.8271 C.2       1 UNK         0.5006 
     36 O          27.9804   23.9464    0.0629 O.2       1 UNK        -0.5103 
     37 C          28.1047   26.2839    3.9788 C.2       5 UNK         0.5055 
     38 O          28.3768   26.3176    5.1809 O.2       5 UNK        -0.5220 
     39 N          28.0068   27.3792    3.2123 N.am      6 UNK        -0.4450 
     40 CA         28.0973   28.7512    3.7068 C.3       6 UNK         0.0367 
     41 CB         26.6916   29.2439    4.1033 C.3       6 UNK        -0.1929 
     42 C          28.7751   29.6471    2.6624 C.2       6 UNK         0.5070 
     43 O          28.2101   30.6594    2.2473 O.2       6 UNK        -0.5237 
     44 N          29.9940   29.2732    2.2565 N.am      7 UNK        -0.4739 
     45 CA         30.8513   29.9905    1.3036 C.3       7 UNK         0.0276 
     46 CB         31.8752   28.9987    0.7200 C.3       7 UNK        -0.1927 
     47 C          31.5284   31.2421    1.9060 C.2       7 UNK         0.5013 
     48 O          32.7204   31.4655    1.6813 O.2       7 UNK        -0.5193 
     49 N          30.7582   32.0386    2.6610 N.am      8 UNK        -0.4253 
     50 CA         31.1460   33.2808    3.3371 C.3       8 UNK         0.0242 
     51 CB         31.2235   34.4321    2.3080 C.3       8 UNK        -0.2000 
     52 C          32.4200   33.1038    4.1883 C.2       8 UNK         0.4948 
     53 O          32.4446   32.2356    5.0635 O.2       8 UNK        -0.5275 
     54 N          33.4639   33.8911    3.8973 N.am      9 UNK        -0.4246 
     55 CA         34.7613   33.8856    4.5777 C.3       9 UNK         0.0261 
     56 CB         35.6159   35.0417    4.0319 C.3       9 UNK        -0.1959 
     57 C          35.5390   32.5579    4.4947 C.2       9 UNK         0.5033 
     58 O          36.4226   32.3447    5.3265 O.2       9 UNK        -0.5390 
     59 N          35.2140   31.6874    3.5253 N.am      10 UNK        -0.4215 
     60 CA         35.8019   30.3489    3.4172 C.3       10 UNK         0.0240 
     61 CB         35.6415   29.8186    1.9840 C.3       10 UNK        -0.1982 
     62 C          35.2225   29.3548    4.4409 C.2       10 UNK         0.4970 
     63 O          35.8920   28.3643    4.7380 O.2       10 UNK        -0.4916 
     64 N          34.0192   29.6285    4.9646 N.am      11 UNK        -0.4279 
     65 CA         33.3796   28.8480    6.0346 C.3       11 UNK         0.1003 
     66 C          33.4070   29.5922    7.3953 C.2       11 UNK         0.5709 
     67 N          33.2822   30.9135    7.4266 N.am      11 UNK        -0.7358 
     68 O          33.5560   28.9611    8.4389 O.2       11 UNK        -0.4999 
     69 C69        31.9311   28.4318    5.6742 C.3       12 UNK        -0.0954 
     70 S70        31.8194   27.4283    4.1586 S.3       12 UNK        -0.2268 
     71 C71        32.5473   25.8569    4.6999 C.3       12 UNK         0.0203 
     72 H72        27.5174   29.5564   -0.2548 H         1 UNK         0.0888 
     73 H73        28.8961   29.3702   -1.3371 H         1 UNK         0.0888 
     74 H74        27.2917   28.8603   -1.8615 H         1 UNK         0.0888 
     75 H75        29.8898   27.3258   -1.5369 H         1 UNK         0.3017 
     76 H76        29.8092   25.5140    0.6257 H         1 UNK         0.0873 
     77 H77        31.8839   25.7944   -0.5070 H         1 UNK         0.0745 
     78 H78        31.1934   25.5404   -2.0768 H         1 UNK         0.0745 
     79 H79        33.4030   22.4401    0.2433 H         1 UNK         0.0705 
     80 H80        33.6426   24.1631    0.1051 H         1 UNK         0.0705 
     81 H81        33.3833   25.3237    2.1611 H         1 UNK         0.1334 
     82 H82        30.7733   23.8729    5.2288 H         1 UNK         0.1417 
     83 H83        31.0006   21.8195    1.4700 H         1 UNK         0.1562 
     84 H84        29.7731   21.6417    4.9746 H         1 UNK         0.0748 
     85 H85        29.9857   20.7391    3.4992 H         1 UNK         0.0748 
     86 H86        28.5147   23.8086    5.0438 H         1 UNK         0.0940 
     87 H87        26.8147   23.6659    4.7810 H         1 UNK         0.0940 
     88 H88        28.6461   24.7868    2.6019 H         1 UNK         0.0703 
     89 H89        26.7687   24.8777    1.4501 H         1 UNK         0.3081 
     90 H90        23.6126   24.6906    1.9182 H         1 UNK         0.0719 
     91 H91        22.5582   26.9364    1.5328 H         1 UNK         0.0809 
     92 H92        24.0026   27.7272    2.1611 H         1 UNK         0.0809 
     93 H93        22.9978   26.7403    3.2143 H         1 UNK         0.0809 
     94 H94        25.6402   26.1050    0.3188 H         1 UNK         0.2990 
     95 H95        23.7865   25.4058   -2.7334 H         1 UNK         0.0690 
     96 H96        24.9804   27.5660   -3.1626 H         1 UNK         0.0788 
     97 H97        25.2247   27.7739   -1.4264 H         1 UNK         0.0788 
     98 H98        23.6035   27.7714   -2.0932 H         1 UNK         0.0788 
     99 H99        26.5949   25.7645   -2.2383 H         1 UNK         0.2993 
    100 H100       27.5255   22.4123   -2.1712 H         1 UNK         0.0949 
    101 H101       28.6778   22.7514   -4.3501 H         1 UNK         0.0767 
    102 H102       26.9655   22.4640   -4.6069 H         1 UNK         0.0767 
    103 H103       27.6036   24.0972   -4.7371 H         1 UNK         0.0767 
    104 H104       29.0097   24.7719   -2.8028 H         1 UNK         0.3013 
    105 H105       27.7845   27.2713    2.2237 H         1 UNK         0.3121 
    106 H106       28.7339   28.7825    4.5938 H         1 UNK         0.0774 
    107 H107       26.7277   30.2614    4.4944 H         1 UNK         0.0815 
    108 H108       26.0117   29.2426    3.2505 H         1 UNK         0.0815 
    109 H109       26.2549   28.6142    4.8787 H         1 UNK         0.0815 
    110 H110       30.4097   28.4623    2.6988 H         1 UNK         0.2987 
    111 H111       30.2278   30.3483    0.4825 H         1 UNK         0.0949 
    112 H112       32.5427   28.6125    1.4898 H         1 UNK         0.0806 
    113 H113       31.3869   28.1461    0.2548 H         1 UNK         0.0806 
    114 H114       32.4936   29.4714   -0.0443 H         1 UNK         0.0806 
    115 H115       29.7879   31.7586    2.7645 H         1 UNK         0.3010 
    116 H116       30.3452   33.5150    4.0400 H         1 UNK         0.0829 
    117 H117       30.2744   34.5474    1.7842 H         1 UNK         0.0813 
    118 H118       31.4320   35.3875    2.7916 H         1 UNK         0.0813 
    119 H119       31.9915   34.2590    1.5528 H         1 UNK         0.0813 
    120 H120       33.3576   34.5506    3.1400 H         1 UNK         0.3038 
    121 H121       34.5706   34.0734    5.6365 H         1 UNK         0.0769 
    122 H122       36.5792   35.0909    4.5419 H         1 UNK         0.0811 
    123 H123       35.1257   36.0041    4.1801 H         1 UNK         0.0811 
    124 H124       35.8177   34.9258    2.9662 H         1 UNK         0.0811 
    125 H125       34.4580   31.9085    2.8847 H         1 UNK         0.3204 
    126 H126       36.8728   30.4285    3.6170 H         1 UNK         0.0748 
    127 H127       36.1443   28.8577    1.8664 H         1 UNK         0.0771 
    128 H128       34.5959   29.6689    1.7232 H         1 UNK         0.0771 
    129 H129       36.0749   30.5033    1.2549 H         1 UNK         0.0771 
    130 H130       33.5463   30.4852    4.7042 H         1 UNK         0.2980 
    131 H131       33.9405   27.9260    6.1954 H         1 UNK         0.0545 
    132 H132       33.0686   31.4352    6.5801 H         1 UNK         0.3459 
    133 H133       33.3098   31.3882    8.3143 H         1 UNK         0.3459 
    134 H134       31.3088   29.3174    5.5314 H         1 UNK         0.0616 
    135 H135       31.4738   27.8669    6.4889 H         1 UNK         0.0616 
    136 H136       33.6349   25.9429    4.6975 H         1 UNK         0.0634 
    137 H137       32.2512   25.6521    5.7299 H         1 UNK         0.0634 
@<TRIPOS>BOND
     1    1    2 1    
     2    1   72 1    
     3    1   73 1    
     4    1   74 1    
     5    2    3 2    
     6    2    4 am   BACKBONE|DICT|INTERRES
     7    4    5 1    
     8    4   75 1    
     9    5    6 1    
    10    5   35 1    
    11    5   76 1    
    12    6    7 1    
    13    6   77 1    
    14    6   78 1    
    15    7    8 1    
    16    8    9 1    
    17    8   79 1    
    18    8   80 1    
    19    9   10 ar   
    20    9   14 ar   
    21   10   11 ar   
    22   10   81 1    
    23   11   12 ar   
    24   11   71 1    
    25   12   13 ar   
    26   12   82 1    
    27   13   14 ar   
    28   13   15 1    
    29   14   83 1    
    30   15   16 1    
    31   15   84 1    
    32   15   85 1    
    33   16   17 1    
    34   17   18 1    
    35   17   86 1    
    36   17   87 1    
    37   18   19 1    
    38   18   37 1    
    39   18   88 1    
    40   19   20 am   BACKBONE|DICT|INTERRES
    41   19   89 1    
    42   20   21 2    
    43   20   22 1    
    44   22   23 1    
    45   22   24 1    
    46   22   90 1    
    47   23   91 1    
    48   23   92 1    
    49   23   93 1    
    50   24   25 am   BACKBONE|DICT|INTERRES
    51   24   94 1    
    52   25   26 2    
    53   25   27 1    
    54   27   28 1    
    55   27   29 1    
    56   27   95 1    
    57   28   96 1    
    58   28   97 1    
    59   28   98 1    
    60   29   30 am   BACKBONE|DICT|INTERRES
    61   29   99 1    
    62   30   31 2    
    63   30   32 1    
    64   32   33 1    
    65   32   34 1    
    66   32  100 1    
    67   33  101 1    
    68   33  102 1    
    69   33  103 1    
    70   34   35 am   BACKBONE|DICT|INTERRES
    71   34  104 1    
    72   35   36 2    
    73   37   38 2    
    74   37   39 am   BACKBONE|DICT|INTERRES
    75   39   40 1    
    76   39  105 1    
    77   40   41 1    
    78   40   42 1    
    79   40  106 1    
    80   41  107 1    
    81   41  108 1    
    82   41  109 1    
    83   42   43 2    
    84   42   44 am   BACKBONE|DICT|INTERRES
    85   44   45 1    
    86   44  110 1    
    87   45   46 1    
    88   45   47 1    
    89   45  111 1    
    90   46  112 1    
    91   46  113 1    
    92   46  114 1    
    93   47   48 2    
    94   47   49 am   BACKBONE|DICT|INTERRES
    95   49   50 1    
    96   49  115 1    
    97   50   51 1    
    98   50   52 1    
    99   50  116 1    
   100   51  117 1    
   101   51  118 1    
   102   51  119 1    
   103   52   53 2    
   104   52   54 am   BACKBONE|DICT|INTERRES
   105   54   55 1    
   106   54  120 1    
   107   55   56 1    
   108   55   57 1    
   109   55  121 1    
   110   56  122 1    
   111   56  123 1    
   112   56  124 1    
   113   57   58 2    
   114   57   59 am   BACKBONE|DICT|INTERRES
   115   59   60 1    
   116   59  125 1    
   117   60   61 1    
   118   60   62 1    
   119   60  126 1    
   120   61  127 1    
   121   61  128 1    
   122   61  129 1    
   123   62   63 2    
   124   62   64 am   BACKBONE|DICT|INTERRES
   125   64   65 1    
   126   64  130 1    
   127   65   66 1    
   128   65   69 1    
   129   65  131 1    
   130   66   67 am   BACKBONE|DICT|INTERRES
   131   66   68 2    
   132   67  132 1    
   133   67  133 1    
   134   69   70 1    
   135   69  134 1    
   136   69  135 1    
   137   70   71 1    
   138   71  136 1    
   139   71  137 1    
@<TRIPOS>SUBSTRUCTURE
     1 UNK         1 GROUP             0       ****    0 ROOT    
