@<TRIPOS>MOLECULE
3R136
137   139    1
SMALL
USER_CHARGES


@<TRIPOS>ATOM
      1 CA         29.9192   26.7380   -4.1550 C.3       0 UNK        -0.1979 
      2 C          29.0333   26.0100   -3.1548 C.2       0 UNK         0.4864 
      3 O          27.8163   26.1976   -3.1680 O.2       0 UNK        -0.5359 
      4 N          29.6377   25.1911   -2.2837 N.am      1 UNK        -0.4318 
      5 CA         28.9439   24.3778   -1.2831 C.3       1 UNK         0.0824 
      6 C6         29.9256   23.9029   -0.1821 C.3       12 UNK        -0.0944 
      7 S7         29.0980   23.0759    1.2178 S.3       12 UNK        -0.2672 
      8 C8         30.3970   23.1276    2.4909 C.3       12 UNK         0.0333 
      9 C9         30.4038   24.4639    3.2149 C.ar      12 UNK        -0.0807 
     10 C10        31.3930   25.4162    2.9515 C.ar      12 UNK        -0.0894 
     11 C11        31.3788   26.6524    3.6059 C.ar      12 UNK        -0.0804 
     12 C12        30.3531   26.9357    4.5137 C.ar      12 UNK        -0.0824 
     13 C13        29.3745   25.9798    4.8056 C.ar      12 UNK        -0.0762 
     14 C14        29.4120   24.7425    4.1587 C.ar      12 UNK        -0.0782 
     15 C15        28.2795   26.2822    5.8226 C.3       12 UNK         0.0230 
     16 S16        26.6041   26.2011    5.1040 S.3       12 UNK        -0.2608 
     17 C17        26.7527   27.3766    3.7205 C.3       12 UNK        -0.0989 
     18 CA         26.7045   26.6500    2.3516 C.3       5 UNK         0.0716 
     19 N          25.3436   26.2000    2.0515 N.am      5 UNK        -0.4135 
     20 C          24.9879   25.3821    1.0558 C.2       4 UNK         0.5031 
     21 O          25.7796   24.8447    0.2740 O.2       4 UNK        -0.5229 
     22 CA         23.4770   25.1478    0.9051 C.3       4 UNK         0.0329 
     23 CB         22.8243   26.3218    0.1553 C.3       4 UNK        -0.2001 
     24 N          23.2538   23.9242    0.1426 N.am      4 UNK        -0.4303 
     25 C          22.6690   22.8073    0.5926 C.2       3 UNK         0.5044 
     26 O          22.1165   22.7101    1.6891 O.2       3 UNK        -0.5152 
     27 CA         22.7176   21.5795   -0.3402 C.3       3 UNK         0.0319 
     28 CB         21.3870   21.4219   -1.0940 C.3       3 UNK        -0.2001 
     29 N          23.8169   21.6453   -1.3103 N.am      3 UNK        -0.4354 
     30 C          25.1154   21.5400   -0.9937 C.2       2 UNK         0.4964 
     31 O          25.5193   21.2382    0.1302 O.2       2 UNK        -0.5047 
     32 CA         26.1375   21.8662   -2.0904 C.3       2 UNK         0.0288 
     33 CB         25.5237   22.2403   -3.4593 C.3       2 UNK        -0.2113 
     34 N          26.9722   22.9585   -1.5986 N.am      2 UNK        -0.4145 
     35 C          28.2301   23.1994   -1.9780 C.2       1 UNK         0.5006 
     36 O          28.8353   22.5329   -2.8234 O.2       1 UNK        -0.5103 
     37 C          27.2545   27.5844    1.2584 C.2       5 UNK         0.5055 
     38 O          26.4909   28.3285    0.6367 O.2       5 UNK        -0.5220 
     39 N          28.5851   27.5852    1.1166 N.am      6 UNK        -0.4450 
     40 CA         29.3289   28.6265    0.4093 C.3       6 UNK         0.0367 
     41 CB         30.6565   28.0413   -0.0987 C.3       6 UNK        -0.1929 
     42 C          29.6045   29.8055    1.3569 C.2       6 UNK         0.5070 
     43 O          29.6007   29.6293    2.5774 O.2       6 UNK        -0.5237 
     44 N          29.8878   30.9762    0.7790 N.am      7 UNK        -0.4739 
     45 CA         30.4009   32.1378    1.5023 C.3       7 UNK         0.0276 
     46 CB         29.7570   33.4163    0.9391 C.3       7 UNK        -0.1927 
     47 C          31.9246   32.1664    1.3297 C.2       7 UNK         0.5013 
     48 O          32.3974   32.1897    0.1904 O.2       7 UNK        -0.5193 
     49 N          32.6626   32.1621    2.4436 N.am      8 UNK        -0.4253 
     50 CA         34.1203   32.2256    2.4801 C.3       8 UNK         0.0242 
     51 CB         34.7268   30.8423    2.1760 C.3       8 UNK        -0.2000 
     52 C          34.5471   32.7038    3.8682 C.2       8 UNK         0.4948 
     53 O          33.9101   32.3324    4.8578 O.2       8 UNK        -0.5275 
     54 N          35.6439   33.4705    3.9269 N.am      9 UNK        -0.4246 
     55 CA         36.2280   33.9966    5.1673 C.3       9 UNK         0.0261 
     56 CB         37.3279   35.0140    4.8226 C.3       9 UNK        -0.1959 
     57 C          36.7773   32.9052    6.1044 C.2       9 UNK         0.5033 
     58 O          36.8023   33.1100    7.3184 O.2       9 UNK        -0.5390 
     59 N          37.1890   31.7659    5.5299 N.am      10 UNK        -0.4215 
     60 CA         37.6086   30.5686    6.2603 C.3       10 UNK         0.0240 
     61 CB         38.3300   29.6123    5.2964 C.3       10 UNK        -0.1982 
     62 C          36.4374   29.8489    6.9534 C.2       10 UNK         0.4970 
     63 O          36.6478   29.2471    8.0073 O.2       10 UNK        -0.4916 
     64 N          35.2409   29.9158    6.3549 N.am      11 UNK        -0.4279 
     65 CA         34.0058   29.3436    6.9070 C.3       11 UNK         0.1003 
     66 C          33.3162   30.3138    7.9010 C.2       11 UNK         0.5709 
     67 N          33.2465   31.6047    7.5972 N.am      11 UNK        -0.7358 
     68 O          32.8471   29.8933    8.9558 O.2       11 UNK        -0.4999 
     69 C69        33.0145   28.9038    5.8002 C.3       12 UNK        -0.0954 
     70 S70        33.7347   27.7010    4.6331 S.3       12 UNK        -0.2268 
     71 C71        32.4688   27.6795    3.3253 C.3       12 UNK         0.0203 
     72 H72        29.6305   26.4753   -5.1723 H         1 UNK         0.0888 
     73 H73        29.8102   27.8157   -4.0366 H         1 UNK         0.0888 
     74 H74        30.9721   26.4880   -4.0258 H         1 UNK         0.0888 
     75 H75        30.6334   25.0397   -2.3561 H         1 UNK         0.3017 
     76 H76        28.1925   25.0149   -0.8111 H         1 UNK         0.0873 
     77 H77        30.6766   23.2263   -0.5947 H         1 UNK         0.0745 
     78 H78        30.4710   24.7624    0.2102 H         1 UNK         0.0745 
     79 H79        30.2152   22.3288    3.2114 H         1 UNK         0.0705 
     80 H80        31.3681   22.9170    2.0400 H         1 UNK         0.0705 
     81 H81        32.1743   25.1952    2.2370 H         1 UNK         0.1334 
     82 H82        30.3215   27.9017    4.9973 H         1 UNK         0.1417 
     83 H83        28.6510   24.0035    4.3717 H         1 UNK         0.1562 
     84 H84        28.4235   27.2687    6.2662 H         1 UNK         0.0748 
     85 H85        28.3474   25.5655    6.6421 H         1 UNK         0.0748 
     86 H86        27.6767   27.9462    3.8417 H         1 UNK         0.0940 
     87 H87        25.9519   28.1147    3.7972 H         1 UNK         0.0940 
     88 H88        27.3461   25.7663    2.3845 H         1 UNK         0.0703 
     89 H89        24.6175   26.6020    2.6251 H         1 UNK         0.3081 
     90 H90        23.0351   25.0666    1.9006 H         1 UNK         0.0719 
     91 H91        23.2603   26.4607   -0.8350 H         1 UNK         0.0809 
     92 H92        21.7530   26.1638    0.0300 H         1 UNK         0.0809 
     93 H93        22.9513   27.2579    0.7005 H         1 UNK         0.0809 
     94 H94        23.7355   23.8794   -0.7434 H         1 UNK         0.2990 
     95 H95        22.8645   20.6963    0.2853 H         1 UNK         0.0690 
     96 H96        21.3826   20.5210   -1.7079 H         1 UNK         0.0788 
     97 H97        21.1865   22.2743   -1.7443 H         1 UNK         0.0788 
     98 H98        20.5517   21.3407   -0.3968 H         1 UNK         0.0788 
     99 H99        23.5714   21.8773   -2.2625 H         1 UNK         0.2993 
    100 H100       26.7538   20.9731   -2.2149 H         1 UNK         0.0949 
    101 H101       24.9235   23.1495   -3.4042 H         1 UNK         0.0767 
    102 H102       26.3031   22.4116   -4.2022 H         1 UNK         0.0767 
    103 H103       24.8941   21.4382   -3.8472 H         1 UNK         0.0767 
    104 H104       26.5648   23.5335   -0.8614 H         1 UNK         0.3013 
    105 H105       29.1319   26.9998    1.7331 H         1 UNK         0.3121 
    106 H106       28.7487   28.9823   -0.4451 H         1 UNK         0.0774 
    107 H107       31.2677   27.6564    0.7158 H         1 UNK         0.0815 
    108 H108       31.2469   28.7951   -0.6213 H         1 UNK         0.0815 
    109 H109       30.4883   27.2266   -0.7973 H         1 UNK         0.0815 
    110 H110       29.9316   31.0295   -0.2294 H         1 UNK         0.2987 
    111 H111       30.1547   32.0736    2.5649 H         1 UNK         0.0949 
    112 H112       29.9723   33.5483   -0.1221 H         1 UNK         0.0806 
    113 H113       28.6738   33.3992    1.0607 H         1 UNK         0.0806 
    114 H114       30.1278   34.3002    1.4596 H         1 UNK         0.0806 
    115 H115       32.2217   32.1592    3.3556 H         1 UNK         0.3010 
    116 H116       34.4634   32.9483    1.7362 H         1 UNK         0.0829 
    117 H117       35.8165   30.8738    2.2062 H         1 UNK         0.0813 
    118 H118       34.4004   30.0942    2.8985 H         1 UNK         0.0813 
    119 H119       34.4438   30.4908    1.1838 H         1 UNK         0.0813 
    120 H120       36.1091   33.7239    3.0663 H         1 UNK         0.3038 
    121 H121       35.4372   34.5195    5.7099 H         1 UNK         0.0769 
    122 H122       38.1406   34.5565    4.2569 H         1 UNK         0.0811 
    123 H123       37.7618   35.4407    5.7282 H         1 UNK         0.0811 
    124 H124       36.9329   35.8428    4.2348 H         1 UNK         0.0811 
    125 H125       37.1626   31.7035    4.5230 H         1 UNK         0.3204 
    126 H126       38.3162   30.8721    7.0351 H         1 UNK         0.0748 
    127 H127       38.6792   28.7215    5.8207 H         1 UNK         0.0771 
    128 H128       37.6752   29.2790    4.4899 H         1 UNK         0.0771 
    129 H129       39.2041   30.0848    4.8477 H         1 UNK         0.0771 
    130 H130       35.1308   30.4801    5.5258 H         1 UNK         0.2980 
    131 H131       34.2660   28.4453    7.4708 H         1 UNK         0.0545 
    132 H132       33.5734   31.9369    6.6944 H         1 UNK         0.3459 
    133 H133       32.8063   32.2424    8.2402 H         1 UNK         0.3459 
    134 H134       32.6626   29.7706    5.2374 H         1 UNK         0.0616 
    135 H135       32.1356   28.4466    6.2560 H         1 UNK         0.0616 
    136 H136       32.0351   28.6728    3.2052 H         1 UNK         0.0634 
    137 H137       32.9660   27.4518    2.3816 H         1 UNK         0.0634 
@<TRIPOS>BOND
     1    1    2 1    
     2    1   72 1    
     3    1   73 1    
     4    1   74 1    
     5    2    3 2    
     6    2    4 am   BACKBONE|DICT|INTERRES
     7    4    5 1    
     8    4   75 1    
     9    5    6 1    
    10    5   35 1    
    11    5   76 1    
    12    6    7 1    
    13    6   77 1    
    14    6   78 1    
    15    7    8 1    
    16    8    9 1    
    17    8   79 1    
    18    8   80 1    
    19    9   10 ar   
    20    9   14 ar   
    21   10   11 ar   
    22   10   81 1    
    23   11   12 ar   
    24   11   71 1    
    25   12   13 ar   
    26   12   82 1    
    27   13   14 ar   
    28   13   15 1    
    29   14   83 1    
    30   15   16 1    
    31   15   84 1    
    32   15   85 1    
    33   16   17 1    
    34   17   18 1    
    35   17   86 1    
    36   17   87 1    
    37   18   19 1    
    38   18   37 1    
    39   18   88 1    
    40   19   20 am   BACKBONE|DICT|INTERRES
    41   19   89 1    
    42   20   21 2    
    43   20   22 1    
    44   22   23 1    
    45   22   24 1    
    46   22   90 1    
    47   23   91 1    
    48   23   92 1    
    49   23   93 1    
    50   24   25 am   BACKBONE|DICT|INTERRES
    51   24   94 1    
    52   25   26 2    
    53   25   27 1    
    54   27   28 1    
    55   27   29 1    
    56   27   95 1    
    57   28   96 1    
    58   28   97 1    
    59   28   98 1    
    60   29   30 am   BACKBONE|DICT|INTERRES
    61   29   99 1    
    62   30   31 2    
    63   30   32 1    
    64   32   33 1    
    65   32   34 1    
    66   32  100 1    
    67   33  101 1    
    68   33  102 1    
    69   33  103 1    
    70   34   35 am   BACKBONE|DICT|INTERRES
    71   34  104 1    
    72   35   36 2    
    73   37   38 2    
    74   37   39 am   BACKBONE|DICT|INTERRES
    75   39   40 1    
    76   39  105 1    
    77   40   41 1    
    78   40   42 1    
    79   40  106 1    
    80   41  107 1    
    81   41  108 1    
    82   41  109 1    
    83   42   43 2    
    84   42   44 am   BACKBONE|DICT|INTERRES
    85   44   45 1    
    86   44  110 1    
    87   45   46 1    
    88   45   47 1    
    89   45  111 1    
    90   46  112 1    
    91   46  113 1    
    92   46  114 1    
    93   47   48 2    
    94   47   49 am   BACKBONE|DICT|INTERRES
    95   49   50 1    
    96   49  115 1    
    97   50   51 1    
    98   50   52 1    
    99   50  116 1    
   100   51  117 1    
   101   51  118 1    
   102   51  119 1    
   103   52   53 2    
   104   52   54 am   BACKBONE|DICT|INTERRES
   105   54   55 1    
   106   54  120 1    
   107   55   56 1    
   108   55   57 1    
   109   55  121 1    
   110   56  122 1    
   111   56  123 1    
   112   56  124 1    
   113   57   58 2    
   114   57   59 am   BACKBONE|DICT|INTERRES
   115   59   60 1    
   116   59  125 1    
   117   60   61 1    
   118   60   62 1    
   119   60  126 1    
   120   61  127 1    
   121   61  128 1    
   122   61  129 1    
   123   62   63 2    
   124   62   64 am   BACKBONE|DICT|INTERRES
   125   64   65 1    
   126   64  130 1    
   127   65   66 1    
   128   65   69 1    
   129   65  131 1    
   130   66   67 am   BACKBONE|DICT|INTERRES
   131   66   68 2    
   132   67  132 1    
   133   67  133 1    
   134   69   70 1    
   135   69  134 1    
   136   69  135 1    
   137   70   71 1    
   138   71  136 1    
   139   71  137 1    
@<TRIPOS>SUBSTRUCTURE
     1 UNK         1 GROUP             0       ****    0 ROOT    
