@<TRIPOS>MOLECULE
3R136
137   139    1
SMALL
USER_CHARGES


@<TRIPOS>ATOM
      1 CA         35.4340   24.1152    0.8301 C.3       0 UNK        -0.1979 
      2 C          34.1199   23.5780    0.2805 C.2       0 UNK         0.4864 
      3 O          34.1319   22.8935   -0.7437 O.2       0 UNK        -0.5359 
      4 N          33.0100   23.8931    0.9628 N.am      1 UNK        -0.4318 
      5 CA         31.6094   23.6103    0.6170 C.3       1 UNK         0.0824 
      6 C6         31.2803   22.1392    0.2211 C.3       12 UNK        -0.0944 
      7 S7         31.9370   20.8560    1.3425 S.3       12 UNK        -0.2672 
      8 C8         30.6276   20.7205    2.6051 C.3       12 UNK         0.0333 
      9 C9         30.6203   21.9075    3.5596 C.ar      12 UNK        -0.0807 
     10 C10        31.8004   22.3053    4.1953 C.ar      12 UNK        -0.0894 
     11 C11        31.8163   23.4187    5.0368 C.ar      12 UNK        -0.0804 
     12 C12        30.6306   24.1206    5.2702 C.ar      12 UNK        -0.0824 
     13 C13        29.4358   23.7167    4.6665 C.ar      12 UNK        -0.0762 
     14 C14        29.4368   22.6089    3.8113 C.ar      12 UNK        -0.0782 
     15 C15        28.1438   24.4734    4.9485 C.3       12 UNK         0.0230 
     16 S16        27.4289   25.2041    3.4432 S.3       12 UNK        -0.2608 
     17 C17        28.6980   26.4363    2.9880 C.3       12 UNK        -0.0989 
     18 CA         28.1585   27.8849    2.9200 C.3       5 UNK         0.0716 
     19 N          27.0154   28.0068    1.9978 N.am      5 UNK        -0.4135 
     20 C          26.4802   29.1558    1.5605 C.2       4 UNK         0.5031 
     21 O          26.8920   30.2617    1.9120 O.2       4 UNK        -0.5229 
     22 CA         25.2891   29.0538    0.5960 C.3       4 UNK         0.0329 
     23 CB         24.9296   30.4061   -0.0491 C.3       4 UNK        -0.2001 
     24 N          25.5785   28.0778   -0.4515 N.am      4 UNK        -0.4303 
     25 C          24.7739   27.0780   -0.8352 C.2       3 UNK         0.5044 
     26 O          23.6531   26.8778   -0.3662 O.2       3 UNK        -0.5152 
     27 CA         25.3128   26.1317   -1.9271 C.3       3 UNK         0.0319 
     28 CB         24.7274   26.5068   -3.2983 C.3       3 UNK        -0.2001 
     29 N          26.7782   26.1139   -2.0170 N.am      3 UNK        -0.4354 
     30 C          27.5862   25.6198   -1.0699 C.2       2 UNK         0.4964 
     31 O          27.1851   25.0805   -0.0363 O.2       2 UNK        -0.5047 
     32 CA         29.0888   25.8129   -1.2883 C.3       2 UNK         0.0288 
     33 CB         29.4886   27.2836   -1.0478 C.3       2 UNK        -0.2113 
     34 N          29.8033   24.9329   -0.3677 N.am      2 UNK        -0.4145 
     35 C          31.0921   24.5900   -0.4579 C.2       1 UNK         0.5006 
     36 O          31.8341   24.9949   -1.3563 O.2       1 UNK        -0.5103 
     37 C          27.9428   28.4957    4.3265 C.2       5 UNK         0.5055 
     38 O          28.9062   28.6138    5.0832 O.2       5 UNK        -0.5220 
     39 N          26.7127   28.9166    4.6495 N.am      6 UNK        -0.4450 
     40 CA         26.4079   29.7609    5.8054 C.3       6 UNK         0.0367 
     41 CB         24.8864   29.7805    6.0243 C.3       6 UNK        -0.1929 
     42 C          26.9488   31.2003    5.6654 C.2       6 UNK         0.5070 
     43 O          27.1396   31.8602    6.6877 O.2       6 UNK        -0.5237 
     44 N          27.1690   31.6675    4.4267 N.am      7 UNK        -0.4739 
     45 CA         27.6439   33.0177    4.1108 C.3       7 UNK         0.0276 
     46 CB         26.5000   33.8070    3.4517 C.3       7 UNK        -0.1927 
     47 C          28.8853   33.0227    3.2027 C.2       7 UNK         0.5013 
     48 O          29.7023   33.9368    3.3265 O.2       7 UNK        -0.5193 
     49 N          29.0030   32.0434    2.2936 N.am      8 UNK        -0.4253 
     50 CA         30.0954   31.9280    1.3227 C.3       8 UNK         0.0242 
     51 CB         29.7505   30.8349    0.2975 C.3       8 UNK        -0.2000 
     52 C          31.4533   31.6318    1.9819 C.2       8 UNK         0.4948 
     53 O          31.5117   30.9223    2.9879 O.2       8 UNK        -0.5275 
     54 N          32.5264   32.1452    1.3641 N.am      9 UNK        -0.4246 
     55 CA         33.9111   32.0502    1.8434 C.3       9 UNK         0.0261 
     56 CB         34.8023   32.9660    0.9882 C.3       9 UNK        -0.1959 
     57 C          34.4926   30.6246    1.8825 C.2       9 UNK         0.5033 
     58 O          35.4648   30.3958    2.6050 O.2       9 UNK        -0.5390 
     59 N          33.8980   29.6864    1.1325 N.am      10 UNK        -0.4215 
     60 CA         34.2507   28.2638    1.1030 C.3       10 UNK         0.0240 
     61 CB         33.7040   27.6471   -0.1965 C.3       10 UNK        -0.1982 
     62 C          33.7547   27.5291    2.3660 C.2       10 UNK         0.4970 
     63 O          32.8976   26.6497    2.2675 O.2       10 UNK        -0.4916 
     64 N          34.2997   27.9417    3.5182 N.am      11 UNK        -0.4279 
     65 CA         34.0015   27.5073    4.8947 C.3       11 UNK         0.1003 
     66 C          32.5174   27.6269    5.3571 C.2       11 UNK         0.5709 
     67 N          31.6815   28.4114    4.6911 N.am      11 UNK        -0.7358 
     68 O          32.1310   27.0539    6.3723 O.2       11 UNK        -0.4999 
     69 C69        34.7220   26.1887    5.3120 C.3       12 UNK        -0.0954 
     70 S70        34.1928   24.6711    4.4483 S.3       12 UNK        -0.2268 
     71 C71        33.1208   23.8629    5.6774 C.3       12 UNK         0.0203 
     72 H72        36.0014   24.6040    0.0386 H         1 UNK         0.0888 
     73 H73        35.2759   24.8421    1.6261 H         1 UNK         0.0888 
     74 H74        36.0353   23.2988    1.2291 H         1 UNK         0.0888 
     75 H75        33.1056   24.5157    1.7580 H         1 UNK         0.3017 
     76 H76        31.0601   23.8353    1.5322 H         1 UNK         0.0873 
     77 H77        30.1999   22.0044    0.1438 H         1 UNK         0.0745 
     78 H78        31.6713   21.9215   -0.7744 H         1 UNK         0.0745 
     79 H79        30.7938   19.8113    3.1842 H         1 UNK         0.0705 
     80 H80        29.6613   20.6010    2.1126 H         1 UNK         0.0705 
     81 H81        32.7195   21.7662    4.0094 H         1 UNK         0.1334 
     82 H82        30.6382   24.9824    5.9232 H         1 UNK         0.1417 
     83 H83        28.5143   22.3029    3.3364 H         1 UNK         0.1562 
     84 H84        28.3018   25.2629    5.6854 H         1 UNK         0.0748 
     85 H85        27.4186   23.7856    5.3853 H         1 UNK         0.0748 
     86 H86        29.0935   26.1541    2.0135 H         1 UNK         0.0940 
     87 H87        29.5533   26.3752    3.6643 H         1 UNK         0.0940 
     88 H88        28.9590   28.4870    2.4872 H         1 UNK         0.0703 
     89 H89        26.6158   27.1316    1.6848 H         1 UNK         0.3081 
     90 H90        24.4376   28.7251    1.1953 H         1 UNK         0.0719 
     91 H91        24.6705   31.1466    0.7090 H         1 UNK         0.0809 
     92 H92        24.0709   30.3115   -0.7139 H         1 UNK         0.0809 
     93 H93        25.7605   30.8093   -0.6293 H         1 UNK         0.0809 
     94 H94        26.4827   28.1552   -0.8944 H         1 UNK         0.2990 
     95 H95        24.9778   25.1226   -1.6769 H         1 UNK         0.0690 
     96 H96        25.0352   25.7997   -4.0689 H         1 UNK         0.0788 
     97 H97        25.0383   27.5042   -3.6121 H         1 UNK         0.0788 
     98 H98        23.6367   26.4992   -3.2722 H         1 UNK         0.0788 
     99 H99        27.1863   26.5366   -2.8392 H         1 UNK         0.2993 
    100 H100       29.3276   25.5245   -2.3145 H         1 UNK         0.0949 
    101 H101       28.9200   27.9639   -1.6826 H         1 UNK         0.0767 
    102 H102       29.3206   27.5808   -0.0129 H         1 UNK         0.0767 
    103 H103       30.5403   27.4499   -1.2765 H         1 UNK         0.0767 
    104 H104       29.2090   24.5309    0.3484 H         1 UNK         0.3013 
    105 H105       25.9676   28.7643    3.9868 H         1 UNK         0.3121 
    106 H106       26.8760   29.3172    6.6870 H         1 UNK         0.0774 
    107 H107       24.6272   30.3764    6.9006 H         1 UNK         0.0815 
    108 H108       24.3604   30.2112    5.1713 H         1 UNK         0.0815 
    109 H109       24.4954   28.7766    6.1907 H         1 UNK         0.0815 
    110 H110       26.9910   31.0575    3.6340 H         1 UNK         0.2987 
    111 H111       27.9306   33.5395    5.0265 H         1 UNK         0.0949 
    112 H112       25.6438   33.8946    4.1208 H         1 UNK         0.0806 
    113 H113       26.8174   34.8194    3.1977 H         1 UNK         0.0806 
    114 H114       26.1593   33.3292    2.5320 H         1 UNK         0.0806 
    115 H115       28.2635   31.3489    2.2201 H         1 UNK         0.3010 
    116 H116       30.1647   32.8833    0.7980 H         1 UNK         0.0829 
    117 H117       28.7924   31.0294   -0.1853 H         1 UNK         0.0813 
    118 H118       30.5031   30.7800   -0.4899 H         1 UNK         0.0813 
    119 H119       29.6968   29.8524    0.7641 H         1 UNK         0.0813 
    120 H120       32.3825   32.6969    0.5300 H         1 UNK         0.3038 
    121 H121       33.9256   32.4241    2.8695 H         1 UNK         0.0769 
    122 H122       34.8088   32.6607   -0.0590 H         1 UNK         0.0811 
    123 H123       35.8353   32.9454    1.3392 H         1 UNK         0.0811 
    124 H124       34.4693   34.0030    1.0354 H         1 UNK         0.0811 
    125 H125       33.0912   29.9614    0.5929 H         1 UNK         0.3204 
    126 H126       35.3389   28.1734    1.0797 H         1 UNK         0.0748 
    127 H127       33.9867   26.5978   -0.2819 H         1 UNK         0.0771 
    128 H128       32.6159   27.6926   -0.2358 H         1 UNK         0.0771 
    129 H129       34.0947   28.1575   -1.0768 H         1 UNK         0.0771 
    130 H130       34.9421   28.7254    3.4474 H         1 UNK         0.2980 
    131 H131       34.4827   28.2811    5.4935 H         1 UNK         0.0545 
    132 H132       31.9862   28.9705    3.9073 H         1 UNK         0.3459 
    133 H133       30.7163   28.4869    5.0017 H         1 UNK         0.3459 
    134 H134       35.7903   26.2998    5.1221 H         1 UNK         0.0616 
    135 H135       34.6458   26.0396    6.3900 H         1 UNK         0.0616 
    136 H136       32.9212   24.5271    6.5182 H         1 UNK         0.0634 
    137 H137       33.6432   22.9987    6.0899 H         1 UNK         0.0634 
@<TRIPOS>BOND
     1    1    2 1    
     2    1   72 1    
     3    1   73 1    
     4    1   74 1    
     5    2    3 2    
     6    2    4 am   BACKBONE|DICT|INTERRES
     7    4    5 1    
     8    4   75 1    
     9    5    6 1    
    10    5   35 1    
    11    5   76 1    
    12    6    7 1    
    13    6   77 1    
    14    6   78 1    
    15    7    8 1    
    16    8    9 1    
    17    8   79 1    
    18    8   80 1    
    19    9   10 ar   
    20    9   14 ar   
    21   10   11 ar   
    22   10   81 1    
    23   11   12 ar   
    24   11   71 1    
    25   12   13 ar   
    26   12   82 1    
    27   13   14 ar   
    28   13   15 1    
    29   14   83 1    
    30   15   16 1    
    31   15   84 1    
    32   15   85 1    
    33   16   17 1    
    34   17   18 1    
    35   17   86 1    
    36   17   87 1    
    37   18   19 1    
    38   18   37 1    
    39   18   88 1    
    40   19   20 am   BACKBONE|DICT|INTERRES
    41   19   89 1    
    42   20   21 2    
    43   20   22 1    
    44   22   23 1    
    45   22   24 1    
    46   22   90 1    
    47   23   91 1    
    48   23   92 1    
    49   23   93 1    
    50   24   25 am   BACKBONE|DICT|INTERRES
    51   24   94 1    
    52   25   26 2    
    53   25   27 1    
    54   27   28 1    
    55   27   29 1    
    56   27   95 1    
    57   28   96 1    
    58   28   97 1    
    59   28   98 1    
    60   29   30 am   BACKBONE|DICT|INTERRES
    61   29   99 1    
    62   30   31 2    
    63   30   32 1    
    64   32   33 1    
    65   32   34 1    
    66   32  100 1    
    67   33  101 1    
    68   33  102 1    
    69   33  103 1    
    70   34   35 am   BACKBONE|DICT|INTERRES
    71   34  104 1    
    72   35   36 2    
    73   37   38 2    
    74   37   39 am   BACKBONE|DICT|INTERRES
    75   39   40 1    
    76   39  105 1    
    77   40   41 1    
    78   40   42 1    
    79   40  106 1    
    80   41  107 1    
    81   41  108 1    
    82   41  109 1    
    83   42   43 2    
    84   42   44 am   BACKBONE|DICT|INTERRES
    85   44   45 1    
    86   44  110 1    
    87   45   46 1    
    88   45   47 1    
    89   45  111 1    
    90   46  112 1    
    91   46  113 1    
    92   46  114 1    
    93   47   48 2    
    94   47   49 am   BACKBONE|DICT|INTERRES
    95   49   50 1    
    96   49  115 1    
    97   50   51 1    
    98   50   52 1    
    99   50  116 1    
   100   51  117 1    
   101   51  118 1    
   102   51  119 1    
   103   52   53 2    
   104   52   54 am   BACKBONE|DICT|INTERRES
   105   54   55 1    
   106   54  120 1    
   107   55   56 1    
   108   55   57 1    
   109   55  121 1    
   110   56  122 1    
   111   56  123 1    
   112   56  124 1    
   113   57   58 2    
   114   57   59 am   BACKBONE|DICT|INTERRES
   115   59   60 1    
   116   59  125 1    
   117   60   61 1    
   118   60   62 1    
   119   60  126 1    
   120   61  127 1    
   121   61  128 1    
   122   61  129 1    
   123   62   63 2    
   124   62   64 am   BACKBONE|DICT|INTERRES
   125   64   65 1    
   126   64  130 1    
   127   65   66 1    
   128   65   69 1    
   129   65  131 1    
   130   66   67 am   BACKBONE|DICT|INTERRES
   131   66   68 2    
   132   67  132 1    
   133   67  133 1    
   134   69   70 1    
   135   69  134 1    
   136   69  135 1    
   137   70   71 1    
   138   71  136 1    
   139   71  137 1    
@<TRIPOS>SUBSTRUCTURE
     1 UNK         1 GROUP             0       ****    0 ROOT    
