@<TRIPOS>MOLECULE
3R136
137   139    1
SMALL
USER_CHARGES


@<TRIPOS>ATOM
      1 CA         30.3832   17.3816   -0.8547 C.3       0 UNK        -0.1979 
      2 C          29.8699   18.7758   -0.5246 C.2       0 UNK         0.4864 
      3 O          28.8385   19.1850   -1.0600 O.2       0 UNK        -0.5359 
      4 N          30.5839   19.4976    0.3510 N.am      1 UNK        -0.4318 
      5 CA         30.2948   20.8652    0.8019 C.3       1 UNK         0.0824 
      6 C6         29.0002   20.9813    1.6609 C.3       12 UNK        -0.0944 
      7 S7         29.0569   20.0094    3.2042 S.3       12 UNK        -0.2672 
      8 C8         30.2664   20.9232    4.2233 C.3       12 UNK         0.0333 
      9 C9         30.0052   22.4240    4.2696 C.ar      12 UNK        -0.0807 
     10 C10        30.8671   23.3066    3.6117 C.ar      12 UNK        -0.0894 
     11 C11        30.6470   24.6868    3.6420 C.ar      12 UNK        -0.0804 
     12 C12        29.5543   25.1794    4.3696 C.ar      12 UNK        -0.0824 
     13 C13        28.6706   24.3088    5.0146 C.ar      12 UNK        -0.0762 
     14 C14        28.9040   22.9309    4.9642 C.ar      12 UNK        -0.0782 
     15 C15        27.4675   24.8531    5.7732 C.3       12 UNK         0.0230 
     16 S16        26.1544   25.4327    4.6453 S.3       12 UNK        -0.2608 
     17 C17        26.4862   27.2261    4.5350 C.3       12 UNK        -0.0989 
     18 CA         27.0327   27.6621    3.1514 C.3       5 UNK         0.0716 
     19 N          26.0762   27.4239    2.0685 N.am      5 UNK        -0.4135 
     20 C          26.4126   27.3140    0.7785 C.2       4 UNK         0.5031 
     21 O          27.5755   27.3603    0.3642 O.2       4 UNK        -0.5229 
     22 CA         25.2655   27.1523   -0.2233 C.3       4 UNK         0.0329 
     23 CB         24.6759   28.5184   -0.6176 C.3       4 UNK        -0.2001 
     24 N          25.8089   26.4832   -1.3974 N.am      4 UNK        -0.4303 
     25 C          25.1326   25.7224   -2.2630 C.2       3 UNK         0.5044 
     26 O          23.9084   25.5860   -2.2475 O.2       3 UNK        -0.5152 
     27 CA         25.9652   24.9659   -3.3178 C.3       3 UNK         0.0319 
     28 CB         26.0026   25.7542   -4.6372 C.3       3 UNK        -0.2001 
     29 N          27.3405   24.6631   -2.8958 N.am      3 UNK        -0.4354 
     30 C          27.6679   23.8742   -1.8623 C.2       2 UNK         0.4964 
     31 O          26.8403   23.3072   -1.1422 O.2       2 UNK        -0.5047 
     32 CA         29.1664   23.7033   -1.5762 C.3       2 UNK         0.0288 
     33 CB         29.8048   25.0128   -1.0722 C.3       2 UNK        -0.2113 
     34 N          29.3135   22.6720   -0.5573 N.am      2 UNK        -0.4145 
     35 C          30.3651   21.8684   -0.3733 C.2       1 UNK         0.5006 
     36 O          31.3823   21.9074   -1.0700 O.2       1 UNK        -0.5103 
     37 C          27.4564   29.1444    3.1478 C.2       5 UNK         0.5055 
     38 O          26.9079   29.9466    3.9072 O.2       5 UNK        -0.5220 
     39 N          28.4114   29.4865    2.2755 N.am      6 UNK        -0.4450 
     40 CA         28.9998   30.8168    2.1112 C.3       6 UNK         0.0367 
     41 CB         29.6812   30.8771    0.7321 C.3       6 UNK        -0.1929 
     42 C          29.9658   31.1605    3.2617 C.2       6 UNK         0.5070 
     43 O          31.1702   31.3078    3.0367 O.2       6 UNK        -0.5237 
     44 N          29.4263   31.2404    4.4849 N.am      7 UNK        -0.4739 
     45 CA         30.1386   31.5393    5.7303 C.3       7 UNK         0.0276 
     46 CB         29.1358   31.5501    6.8940 C.3       7 UNK        -0.1927 
     47 C          30.9033   32.8698    5.6606 C.2       7 UNK         0.5013 
     48 O          30.3717   33.8503    5.1343 O.2       7 UNK        -0.5193 
     49 N          32.1495   32.8592    6.1525 N.am      8 UNK        -0.4253 
     50 CA         33.1627   33.9264    6.1130 C.3       8 UNK         0.0242 
     51 CB         32.6835   35.1992    6.8388 C.3       8 UNK        -0.2000 
     52 C          33.6925   34.2555    4.7025 C.2       8 UNK         0.4948 
     53 O          34.8886   34.5126    4.5639 O.2       8 UNK        -0.5275 
     54 N          32.8187   34.2300    3.6879 N.am      9 UNK        -0.4246 
     55 CA         33.1414   34.4544    2.2784 C.3       9 UNK         0.0261 
     56 CB         31.8413   34.6253    1.4763 C.3       9 UNK        -0.1959 
     57 C          34.0144   33.3395    1.6786 C.2       9 UNK         0.5033 
     58 O          34.9719   33.6473    0.9663 O.2       9 UNK        -0.5390 
     59 N          33.6811   32.0782    1.9819 N.am      10 UNK        -0.4215 
     60 CA         34.4282   30.8964    1.5441 C.3       10 UNK         0.0240 
     61 CB         33.8468   30.3609    0.2242 C.3       10 UNK        -0.1982 
     62 C          34.4549   29.7995    2.6164 C.2       10 UNK         0.4970 
     63 O          35.5025   29.1828    2.8120 O.2       10 UNK        -0.4916 
     64 N          33.3222   29.5752    3.2936 N.am      11 UNK        -0.4279 
     65 CA         33.1537   28.5469    4.3342 C.3       11 UNK         0.1003 
     66 C          33.6127   28.9969    5.7524 C.2       11 UNK         0.5709 
     67 N          34.1334   30.2054    5.9364 N.am      11 UNK        -0.7358 
     68 O          33.5056   28.2309    6.7066 O.2       11 UNK        -0.4999 
     69 C69        31.7101   27.9726    4.3552 C.3       12 UNK        -0.0954 
     70 S70        31.1670   27.3450    2.7298 S.3       12 UNK        -0.2268 
     71 C71        31.6178   25.5814    2.8650 C.3       12 UNK         0.0203 
     72 H72        29.6316   16.6354   -0.5983 H         1 UNK         0.0888 
     73 H73        30.5934   17.3020   -1.9209 H         1 UNK         0.0888 
     74 H74        31.2966   17.1428   -0.3102 H         1 UNK         0.0888 
     75 H75        31.4320   19.0989    0.7282 H         1 UNK         0.3017 
     76 H76        31.1336   21.1423    1.4401 H         1 UNK         0.0873 
     77 H77        28.7932   22.0173    1.9329 H         1 UNK         0.0745 
     78 H78        28.1310   20.6472    1.0919 H         1 UNK         0.0745 
     79 H79        31.2702   20.7184    3.8485 H         1 UNK         0.0705 
     80 H80        30.2400   20.5239    5.2381 H         1 UNK         0.0705 
     81 H81        31.7162   22.9181    3.0660 H         1 UNK         0.1334 
     82 H82        29.3729   26.2403    4.4363 H         1 UNK         0.1417 
     83 H83        28.2284   22.2480    5.4617 H         1 UNK         0.1562 
     84 H84        27.7812   25.6476    6.4511 H         1 UNK         0.0748 
     85 H85        27.0448   24.0747    6.4103 H         1 UNK         0.0748 
     86 H86        27.1827   27.5147    5.3242 H         1 UNK         0.0940 
     87 H87        25.5566   27.7525    4.7604 H         1 UNK         0.0940 
     88 H88        27.9249   27.0688    2.9458 H         1 UNK         0.0703 
     89 H89        25.1020   27.3931    2.3314 H         1 UNK         0.3081 
     90 H90        24.4914   26.5260    0.2257 H         1 UNK         0.0719 
     91 H91        24.2715   29.0379    0.2519 H         1 UNK         0.0809 
     92 H92        25.4303   29.1670   -1.0651 H         1 UNK         0.0809 
     93 H93        23.8625   28.4077   -1.3349 H         1 UNK         0.0809 
     94 H94        26.8199   26.5168   -1.4509 H         1 UNK         0.2990 
     95 H95        25.4617   24.0148   -3.5036 H         1 UNK         0.0690 
     96 H96        26.5189   26.7083   -4.5233 H         1 UNK         0.0788 
     97 H97        24.9934   25.9706   -4.9911 H         1 UNK         0.0788 
     98 H98        26.5048   25.1904   -5.4236 H         1 UNK         0.0788 
     99 H99        28.0808   25.0915   -3.4335 H         1 UNK         0.2993 
    100 H100       29.6547   23.3788   -2.4978 H         1 UNK         0.0949 
    101 H101       29.3500   25.3474   -0.1387 H         1 UNK         0.0767 
    102 H102       30.8728   24.8883   -0.8919 H         1 UNK         0.0767 
    103 H103       29.6944   25.8193   -1.7977 H         1 UNK         0.0767 
    104 H104       28.4722   22.5246   -0.0130 H         1 UNK         0.3013 
    105 H105       28.7639   28.7603    1.6627 H         1 UNK         0.3121 
    106 H106       28.1998   31.5600    2.1244 H         1 UNK         0.0774 
    107 H107       30.1397   31.8506    0.5580 H         1 UNK         0.0815 
    108 H108       30.4638   30.1238    0.6399 H         1 UNK         0.0815 
    109 H109       28.9631   30.7106   -0.0710 H         1 UNK         0.0815 
    110 H110       28.4294   31.0629    4.5588 H         1 UNK         0.2987 
    111 H111       30.8545   30.7336    5.8997 H         1 UNK         0.0949 
    112 H112       28.6251   30.5914    6.9877 H         1 UNK         0.0806 
    113 H113       29.6382   31.7433    7.8429 H         1 UNK         0.0806 
    114 H114       28.3771   32.3230    6.7630 H         1 UNK         0.0806 
    115 H115       32.4824   31.9876    6.5424 H         1 UNK         0.3010 
    116 H116       34.0135   33.5368    6.6746 H         1 UNK         0.0829 
    117 H117       32.3610   34.9781    7.8563 H         1 UNK         0.0813 
    118 H118       33.4884   35.9322    6.9061 H         1 UNK         0.0813 
    119 H119       31.8538   35.6806    6.3206 H         1 UNK         0.0813 
    120 H120       31.8468   34.0434    3.9200 H         1 UNK         0.3038 
    121 H121       33.7059   35.3869    2.2108 H         1 UNK         0.0769 
    122 H122       31.2764   35.4919    1.8200 H         1 UNK         0.0811 
    123 H123       32.0512   34.7747    0.4162 H         1 UNK         0.0811 
    124 H124       31.1959   33.7515    1.5633 H         1 UNK         0.0811 
    125 H125       32.8366   31.9165    2.5276 H         1 UNK         0.3204 
    126 H126       35.4689   31.1775    1.3671 H         1 UNK         0.0748 
    127 H127       33.8970   31.1115   -0.5646 H         1 UNK         0.0771 
    128 H128       34.4024   29.4883   -0.1220 H         1 UNK         0.0771 
    129 H129       32.8051   30.0612    0.3363 H         1 UNK         0.0771 
    130 H130       32.4931   30.1287    3.0914 H         1 UNK         0.2980 
    131 H131       33.8111   27.7131    4.0818 H         1 UNK         0.0545 
    132 H132       34.3030   30.8079    5.1484 H         1 UNK         0.3459 
    133 H133       34.4727   30.4524    6.8525 H         1 UNK         0.3459 
    134 H134       31.6296   27.1662    5.0862 H         1 UNK         0.0616 
    135 H135       30.9984   28.7340    4.6712 H         1 UNK         0.0616 
    136 H136       32.6122   25.5014    3.3063 H         1 UNK         0.0634 
    137 H137       31.7013   25.1929    1.8489 H         1 UNK         0.0634 
@<TRIPOS>BOND
     1    1    2 1    
     2    1   72 1    
     3    1   73 1    
     4    1   74 1    
     5    2    3 2    
     6    2    4 am   BACKBONE|DICT|INTERRES
     7    4    5 1    
     8    4   75 1    
     9    5    6 1    
    10    5   35 1    
    11    5   76 1    
    12    6    7 1    
    13    6   77 1    
    14    6   78 1    
    15    7    8 1    
    16    8    9 1    
    17    8   79 1    
    18    8   80 1    
    19    9   10 ar   
    20    9   14 ar   
    21   10   11 ar   
    22   10   81 1    
    23   11   12 ar   
    24   11   71 1    
    25   12   13 ar   
    26   12   82 1    
    27   13   14 ar   
    28   13   15 1    
    29   14   83 1    
    30   15   16 1    
    31   15   84 1    
    32   15   85 1    
    33   16   17 1    
    34   17   18 1    
    35   17   86 1    
    36   17   87 1    
    37   18   19 1    
    38   18   37 1    
    39   18   88 1    
    40   19   20 am   BACKBONE|DICT|INTERRES
    41   19   89 1    
    42   20   21 2    
    43   20   22 1    
    44   22   23 1    
    45   22   24 1    
    46   22   90 1    
    47   23   91 1    
    48   23   92 1    
    49   23   93 1    
    50   24   25 am   BACKBONE|DICT|INTERRES
    51   24   94 1    
    52   25   26 2    
    53   25   27 1    
    54   27   28 1    
    55   27   29 1    
    56   27   95 1    
    57   28   96 1    
    58   28   97 1    
    59   28   98 1    
    60   29   30 am   BACKBONE|DICT|INTERRES
    61   29   99 1    
    62   30   31 2    
    63   30   32 1    
    64   32   33 1    
    65   32   34 1    
    66   32  100 1    
    67   33  101 1    
    68   33  102 1    
    69   33  103 1    
    70   34   35 am   BACKBONE|DICT|INTERRES
    71   34  104 1    
    72   35   36 2    
    73   37   38 2    
    74   37   39 am   BACKBONE|DICT|INTERRES
    75   39   40 1    
    76   39  105 1    
    77   40   41 1    
    78   40   42 1    
    79   40  106 1    
    80   41  107 1    
    81   41  108 1    
    82   41  109 1    
    83   42   43 2    
    84   42   44 am   BACKBONE|DICT|INTERRES
    85   44   45 1    
    86   44  110 1    
    87   45   46 1    
    88   45   47 1    
    89   45  111 1    
    90   46  112 1    
    91   46  113 1    
    92   46  114 1    
    93   47   48 2    
    94   47   49 am   BACKBONE|DICT|INTERRES
    95   49   50 1    
    96   49  115 1    
    97   50   51 1    
    98   50   52 1    
    99   50  116 1    
   100   51  117 1    
   101   51  118 1    
   102   51  119 1    
   103   52   53 2    
   104   52   54 am   BACKBONE|DICT|INTERRES
   105   54   55 1    
   106   54  120 1    
   107   55   56 1    
   108   55   57 1    
   109   55  121 1    
   110   56  122 1    
   111   56  123 1    
   112   56  124 1    
   113   57   58 2    
   114   57   59 am   BACKBONE|DICT|INTERRES
   115   59   60 1    
   116   59  125 1    
   117   60   61 1    
   118   60   62 1    
   119   60  126 1    
   120   61  127 1    
   121   61  128 1    
   122   61  129 1    
   123   62   63 2    
   124   62   64 am   BACKBONE|DICT|INTERRES
   125   64   65 1    
   126   64  130 1    
   127   65   66 1    
   128   65   69 1    
   129   65  131 1    
   130   66   67 am   BACKBONE|DICT|INTERRES
   131   66   68 2    
   132   67  132 1    
   133   67  133 1    
   134   69   70 1    
   135   69  134 1    
   136   69  135 1    
   137   70   71 1    
   138   71  136 1    
   139   71  137 1    
@<TRIPOS>SUBSTRUCTURE
     1 UNK         1 GROUP             0       ****    0 ROOT    
