@<TRIPOS>MOLECULE
3R136
137   139    1
SMALL
USER_CHARGES


@<TRIPOS>ATOM
      1 CA         27.2783   22.1668   -2.9813 C.3       0 UNK        -0.1979 
      2 C          27.8528   21.7082   -1.6496 C.2       0 UNK         0.4864 
      3 O          27.4999   20.6284   -1.1729 O.2       0 UNK        -0.5359 
      4 N          28.7159   22.5322   -1.0381 N.am      1 UNK        -0.4318 
      5 CA         29.4547   22.3192    0.2198 C.3       1 UNK         0.0824 
      6 C6         30.4027   21.0900    0.2102 C.3       12 UNK        -0.0944 
      7 S7         31.6053   21.1429   -1.1618 S.3       12 UNK        -0.2672 
      8 C8         33.0901   21.8022   -0.3350 C.3       12 UNK         0.0333 
      9 C9         32.8830   23.2180    0.1887 C.ar      12 UNK        -0.0807 
     10 C10        32.9676   23.4841    1.5596 C.ar      12 UNK        -0.0894 
     11 C11        32.7890   24.7837    2.0443 C.ar      12 UNK        -0.0804 
     12 C12        32.5055   25.8153    1.1429 C.ar      12 UNK        -0.0824 
     13 C13        32.4241   25.5667   -0.2291 C.ar      12 UNK        -0.0762 
     14 C14        32.6182   24.2650   -0.7004 C.ar      12 UNK        -0.0782 
     15 C15        32.1586   26.7047   -1.2049 C.3       12 UNK         0.0230 
     16 S16        30.4197   27.2434   -1.1729 S.3       12 UNK        -0.2608 
     17 C17        30.4997   28.6784   -0.0459 C.3       12 UNK        -0.0989 
     18 CA         29.1939   28.8569    0.7697 C.3       5 UNK         0.0716 
     19 N          28.8721   27.7081    1.6216 N.am      5 UNK        -0.4135 
     20 C          29.4912   27.3322    2.7504 C.2       4 UNK         0.5031 
     21 O          30.5301   27.8487    3.1676 O.2       4 UNK        -0.5229 
     22 CA         28.8399   26.2059    3.5765 C.3       4 UNK         0.0329 
     23 CB         28.5461   26.6787    5.0141 C.3       4 UNK        -0.2001 
     24 N          27.6469   25.5854    2.9778 N.am      4 UNK        -0.4303 
     25 C          26.4378   26.1299    2.7556 C.2       3 UNK         0.5044 
     26 O          26.1698   27.3074    2.9966 O.2       3 UNK        -0.5152 
     27 CA         25.3571   25.2472    2.0965 C.3       3 UNK         0.0319 
     28 CB         24.9589   25.8196    0.7248 C.3       3 UNK        -0.2001 
     29 N          25.7664   23.8523    1.9164 N.am      3 UNK        -0.4354 
     30 C          25.7939   22.9210    2.8803 C.2       2 UNK         0.4964 
     31 O          25.3857   23.1084    4.0263 O.2       2 UNK        -0.5047 
     32 CA         26.4157   21.5607    2.5103 C.3       2 UNK         0.0288 
     33 CB         25.3206   20.5584    2.1116 C.3       2 UNK        -0.2113 
     34 N          27.4137   21.6357    1.4354 N.am      2 UNK        -0.4145 
     35 C          28.5645   22.3211    1.4797 C.2       1 UNK         0.5006 
     36 O          28.9157   22.9797    2.4586 O.2       1 UNK        -0.5103 
     37 C          29.1801   30.1508    1.6088 C.2       5 UNK         0.5055 
     38 O          30.1993   30.8382    1.7054 O.2       5 UNK        -0.5220 
     39 N          28.0382   30.4175    2.2605 N.am      6 UNK        -0.4450 
     40 CA         27.8429   31.4691    3.2673 C.3       6 UNK         0.0367 
     41 CB         26.3922   31.4180    3.7713 C.3       6 UNK        -0.1929 
     42 C          28.2076   32.8964    2.8205 C.2       6 UNK         0.5070 
     43 O          28.5996   33.7090    3.6574 O.2       6 UNK        -0.5237 
     44 N          28.0849   33.1734    1.5174 N.am      7 UNK        -0.4739 
     45 CA         28.4349   34.4572    0.9087 C.3       7 UNK         0.0276 
     46 CB         27.6265   34.6199   -0.3899 C.3       7 UNK        -0.1927 
     47 C          29.9405   34.6236    0.6238 C.2       7 UNK         0.5013 
     48 O          30.3566   35.7476    0.3377 O.2       7 UNK        -0.5193 
     49 N          30.7190   33.5310    0.6606 N.am      8 UNK        -0.4253 
     50 CA         32.1192   33.5051    0.2247 C.3       8 UNK         0.0242 
     51 CB         32.2339   32.6493   -1.0486 C.3       8 UNK        -0.2000 
     52 C          33.0873   32.9868    1.2974 C.2       8 UNK         0.4948 
     53 O          34.1859   33.5334    1.4099 O.2       8 UNK        -0.5275 
     54 N          32.6975   31.9404    2.0364 N.am      9 UNK        -0.4246 
     55 CA         33.5614   31.2299    2.9827 C.3       9 UNK         0.0261 
     56 CB         33.9847   29.8799    2.3784 C.3       9 UNK        -0.1959 
     57 C          32.8859   31.0303    4.3439 C.2       9 UNK         0.5033 
     58 O          33.5067   31.3332    5.3637 O.2       9 UNK        -0.5390 
     59 N          31.6427   30.5240    4.3400 N.am      10 UNK        -0.4215 
     60 CA         30.8271   30.1881    5.5169 C.3       10 UNK         0.0240 
     61 CB         30.4263   31.4647    6.2888 C.3       10 UNK        -0.1982 
     62 C          31.4651   29.1186    6.4296 C.2       10 UNK         0.4970 
     63 O          31.3041   29.1788    7.6505 O.2       10 UNK        -0.4916 
     64 N          32.1601   28.1459    5.8270 N.am      11 UNK        -0.4279 
     65 CA         32.8213   27.0117    6.4953 C.3       11 UNK         0.1003 
     66 C          31.8333   25.9024    6.9661 C.2       11 UNK         0.5709 
     67 N          30.8081   26.2541    7.7303 N.am      11 UNK        -0.7358 
     68 O          31.9901   24.7235    6.6592 O.2       11 UNK        -0.4999 
     69 C69        34.0646   26.4908    5.7100 C.3       12 UNK        -0.0954 
     70 S70        33.9456   26.5136    3.8894 S.3       12 UNK        -0.2268 
     71 C71        32.8975   25.0669    3.5391 C.3       12 UNK         0.0203 
     72 H72        26.1925   22.2342   -2.9186 H         1 UNK         0.0888 
     73 H73        27.6626   23.1424   -3.2783 H         1 UNK         0.0888 
     74 H74        27.5310   21.4511   -3.7632 H         1 UNK         0.0888 
     75 H75        28.9329   23.4076   -1.4940 H         1 UNK         0.3017 
     76 H76        30.0816   23.2062    0.3193 H         1 UNK         0.0873 
     77 H77        29.8322   20.1637    0.1242 H         1 UNK         0.0745 
     78 H78        30.9487   21.0183    1.1531 H         1 UNK         0.0745 
     79 H79        33.3822   21.1244    0.4688 H         1 UNK         0.0705 
     80 H80        33.9164   21.8056   -1.0471 H         1 UNK         0.0705 
     81 H81        33.1779   22.6790    2.2505 H         1 UNK         0.1334 
     82 H82        32.3630   26.8185    1.5157 H         1 UNK         0.1417 
     83 H83        32.5591   24.0601   -1.7610 H         1 UNK         0.1562 
     84 H84        32.3995   26.3912   -2.2218 H         1 UNK         0.0748 
     85 H85        32.8211   27.5441   -0.9882 H         1 UNK         0.0748 
     86 H86        30.6857   29.5611   -0.6595 H         1 UNK         0.0940 
     87 H87        31.3563   28.5908    0.6213 H         1 UNK         0.0940 
     88 H88        28.3729   28.9523    0.0572 H         1 UNK         0.0703 
     89 H89        28.0218   27.2190    1.3874 H         1 UNK         0.3081 
     90 H90        29.5846   25.4121    3.6358 H         1 UNK         0.0719 
     91 H91        29.4495   27.0543    5.4901 H         1 UNK         0.0809 
     92 H92        27.8156   27.4874    5.0405 H         1 UNK         0.0809 
     93 H93        28.1710   25.8629    5.6318 H         1 UNK         0.0809 
     94 H94        27.7816   24.6113    2.7256 H         1 UNK         0.2990 
     95 H95        24.4795   25.2733    2.7459 H         1 UNK         0.0690 
     96 H96        24.1545   25.2394    0.2720 H         1 UNK         0.0788 
     97 H97        25.7989   25.8289    0.0291 H         1 UNK         0.0788 
     98 H98        24.5994   26.8457    0.8161 H         1 UNK         0.0788 
     99 H99        26.1052   23.5947    1.0010 H         1 UNK         0.2993 
    100 H100       26.9208   21.1841    3.4024 H         1 UNK         0.0949 
    101 H101       25.7367   19.5660    1.9365 H         1 UNK         0.0767 
    102 H102       24.5730   20.4607    2.9003 H         1 UNK         0.0767 
    103 H103       24.8010   20.8689    1.2041 H         1 UNK         0.0767 
    104 H104       27.2213   21.1206    0.5775 H         1 UNK         0.3013 
    105 H105       27.2674   29.7737    2.1439 H         1 UNK         0.3121 
    106 H106       28.4930   31.2285    4.1064 H         1 UNK         0.0774 
    107 H107       26.2219   32.1634    4.5496 H         1 UNK         0.0815 
    108 H108       25.6797   31.6152    2.9693 H         1 UNK         0.0815 
    109 H109       26.1546   30.4443    4.2010 H         1 UNK         0.0815 
    110 H110       27.7484   32.4478    0.9010 H         1 UNK         0.2987 
    111 H111       28.1461   35.2611    1.5899 H         1 UNK         0.0949 
    112 H112       27.8740   33.8482   -1.1199 H         1 UNK         0.0806 
    113 H113       26.5542   34.5721   -0.1991 H         1 UNK         0.0806 
    114 H114       27.8261   35.5854   -0.8572 H         1 UNK         0.0806 
    115 H115       30.3142   32.6508    0.9622 H         1 UNK         0.3010 
    116 H116       32.4549   34.5130   -0.0286 H         1 UNK         0.0829 
    117 H117       31.6209   33.0542   -1.8539 H         1 UNK         0.0813 
    118 H118       33.2632   32.6199   -1.4090 H         1 UNK         0.0813 
    119 H119       31.9203   31.6203   -0.8732 H         1 UNK         0.0813 
    120 H120       31.7626   31.5598    1.8975 H         1 UNK         0.3038 
    121 H121       34.4691   31.8079    3.1686 H         1 UNK         0.0769 
    122 H122       34.6639   29.3522    3.0489 H         1 UNK         0.0811 
    123 H123       34.5074   30.0158    1.4316 H         1 UNK         0.0811 
    124 H124       33.1300   29.2272    2.1980 H         1 UNK         0.0811 
    125 H125       31.2283   30.2796    3.4471 H         1 UNK         0.3204 
    126 H126       29.9153   29.7319    5.1308 H         1 UNK         0.0748 
    127 H127       29.6643   31.2456    7.0375 H         1 UNK         0.0771 
    128 H128       31.2772   31.9034    6.8110 H         1 UNK         0.0771 
    129 H129       30.0196   32.2269    5.6248 H         1 UNK         0.0771 
    130 H130       32.1711   28.1208    4.8152 H         1 UNK         0.2980 
    131 H131       33.2288   27.3964    7.4323 H         1 UNK         0.0545 
    132 H132       30.6959   27.2246    7.9956 H         1 UNK         0.3459 
    133 H133       30.1623   25.5533    8.0562 H         1 UNK         0.3459 
    134 H134       34.3719   25.4969    6.0398 H         1 UNK         0.0616 
    135 H135       34.9109   27.1350    5.9528 H         1 UNK         0.0616 
    136 H136       31.8998   25.2449    3.9383 H         1 UNK         0.0634 
    137 H137       33.3018   24.2024    4.0679 H         1 UNK         0.0634 
@<TRIPOS>BOND
     1    1    2 1    
     2    1   72 1    
     3    1   73 1    
     4    1   74 1    
     5    2    3 2    
     6    2    4 am   BACKBONE|DICT|INTERRES
     7    4    5 1    
     8    4   75 1    
     9    5    6 1    
    10    5   35 1    
    11    5   76 1    
    12    6    7 1    
    13    6   77 1    
    14    6   78 1    
    15    7    8 1    
    16    8    9 1    
    17    8   79 1    
    18    8   80 1    
    19    9   10 ar   
    20    9   14 ar   
    21   10   11 ar   
    22   10   81 1    
    23   11   12 ar   
    24   11   71 1    
    25   12   13 ar   
    26   12   82 1    
    27   13   14 ar   
    28   13   15 1    
    29   14   83 1    
    30   15   16 1    
    31   15   84 1    
    32   15   85 1    
    33   16   17 1    
    34   17   18 1    
    35   17   86 1    
    36   17   87 1    
    37   18   19 1    
    38   18   37 1    
    39   18   88 1    
    40   19   20 am   BACKBONE|DICT|INTERRES
    41   19   89 1    
    42   20   21 2    
    43   20   22 1    
    44   22   23 1    
    45   22   24 1    
    46   22   90 1    
    47   23   91 1    
    48   23   92 1    
    49   23   93 1    
    50   24   25 am   BACKBONE|DICT|INTERRES
    51   24   94 1    
    52   25   26 2    
    53   25   27 1    
    54   27   28 1    
    55   27   29 1    
    56   27   95 1    
    57   28   96 1    
    58   28   97 1    
    59   28   98 1    
    60   29   30 am   BACKBONE|DICT|INTERRES
    61   29   99 1    
    62   30   31 2    
    63   30   32 1    
    64   32   33 1    
    65   32   34 1    
    66   32  100 1    
    67   33  101 1    
    68   33  102 1    
    69   33  103 1    
    70   34   35 am   BACKBONE|DICT|INTERRES
    71   34  104 1    
    72   35   36 2    
    73   37   38 2    
    74   37   39 am   BACKBONE|DICT|INTERRES
    75   39   40 1    
    76   39  105 1    
    77   40   41 1    
    78   40   42 1    
    79   40  106 1    
    80   41  107 1    
    81   41  108 1    
    82   41  109 1    
    83   42   43 2    
    84   42   44 am   BACKBONE|DICT|INTERRES
    85   44   45 1    
    86   44  110 1    
    87   45   46 1    
    88   45   47 1    
    89   45  111 1    
    90   46  112 1    
    91   46  113 1    
    92   46  114 1    
    93   47   48 2    
    94   47   49 am   BACKBONE|DICT|INTERRES
    95   49   50 1    
    96   49  115 1    
    97   50   51 1    
    98   50   52 1    
    99   50  116 1    
   100   51  117 1    
   101   51  118 1    
   102   51  119 1    
   103   52   53 2    
   104   52   54 am   BACKBONE|DICT|INTERRES
   105   54   55 1    
   106   54  120 1    
   107   55   56 1    
   108   55   57 1    
   109   55  121 1    
   110   56  122 1    
   111   56  123 1    
   112   56  124 1    
   113   57   58 2    
   114   57   59 am   BACKBONE|DICT|INTERRES
   115   59   60 1    
   116   59  125 1    
   117   60   61 1    
   118   60   62 1    
   119   60  126 1    
   120   61  127 1    
   121   61  128 1    
   122   61  129 1    
   123   62   63 2    
   124   62   64 am   BACKBONE|DICT|INTERRES
   125   64   65 1    
   126   64  130 1    
   127   65   66 1    
   128   65   69 1    
   129   65  131 1    
   130   66   67 am   BACKBONE|DICT|INTERRES
   131   66   68 2    
   132   67  132 1    
   133   67  133 1    
   134   69   70 1    
   135   69  134 1    
   136   69  135 1    
   137   70   71 1    
   138   71  136 1    
   139   71  137 1    
@<TRIPOS>SUBSTRUCTURE
     1 UNK         1 GROUP             0       ****    0 ROOT    
