@<TRIPOS>MOLECULE
3R136
137   139    1
SMALL
USER_CHARGES


@<TRIPOS>ATOM
      1 CA         30.1215   23.0571    4.8238 C.3       0 UNK        -0.1979 
      2 C          29.1697   22.4500    3.8049 C.2       0 UNK         0.4864 
      3 O          28.1533   21.8650    4.1833 O.2       0 UNK        -0.5359 
      4 N          29.4738   22.6030    2.5095 N.am      1 UNK        -0.4318 
      5 CA         28.6680   22.1240    1.3818 C.3       1 UNK         0.0824 
      6 C6         29.5294   21.9409    0.1076 C.3       12 UNK        -0.0944 
      7 S7         30.7120   20.5454    0.1980 S.3       12 UNK        -0.2672 
      8 C8         32.1548   21.1617    1.1445 C.3       12 UNK         0.0333 
      9 C9         32.5022   22.6222    0.8829 C.ar      12 UNK        -0.0807 
     10 C10        32.6108   23.5138    1.9537 C.ar      12 UNK        -0.0894 
     11 C11        32.8414   24.8733    1.7280 C.ar      12 UNK        -0.0804 
     12 C12        32.9760   25.3387    0.4173 C.ar      12 UNK        -0.0824 
     13 C13        32.8840   24.4536   -0.6621 C.ar      12 UNK        -0.0762 
     14 C14        32.6826   23.0917   -0.4212 C.ar      12 UNK        -0.0782 
     15 C15        32.9336   24.9765   -2.0908 C.3       12 UNK         0.0230 
     16 S16        31.3885   24.6346   -3.0061 S.3       12 UNK        -0.2608 
     17 C17        30.1077   25.3557   -1.9180 C.3       12 UNK        -0.0989 
     18 CA         29.5579   26.7176   -2.4028 C.3       5 UNK         0.0716 
     19 N          28.2907   27.0159   -1.7302 N.am      5 UNK        -0.4135 
     20 C          27.4724   28.0348   -2.0232 C.2       4 UNK         0.5031 
     21 O          27.6199   28.7690   -3.0009 O.2       4 UNK        -0.5229 
     22 CA         26.2976   28.2996   -1.0611 C.3       4 UNK         0.0329 
     23 CB         24.9779   27.8183   -1.6861 C.3       4 UNK        -0.2001 
     24 N          26.4213   27.7138    0.2803 N.am      4 UNK        -0.4303 
     25 C          27.4087   27.8993    1.1664 C.2       3 UNK         0.5044 
     26 O          28.4290   28.5385    0.9191 O.2       3 UNK        -0.5152 
     27 CA         27.2575   27.2436    2.5530 C.3       3 UNK         0.0319 
     28 CB         26.4463   28.1467    3.5010 C.3       3 UNK        -0.2001 
     29 N          26.7346   25.8676    2.5380 N.am      3 UNK        -0.4354 
     30 C          25.5318   25.4177    2.1443 C.2       2 UNK         0.4964 
     31 O          24.6239   26.1547    1.7557 O.2       2 UNK        -0.5047 
     32 CA         25.3081   23.8904    2.1629 C.3       2 UNK         0.0288 
     33 CB         24.3275   23.4317    1.0619 C.3       2 UNK        -0.2113 
     34 N          26.5430   23.0941    2.1096 N.am      2 UNK        -0.4145 
     35 C          27.4789   23.0820    1.1475 C.2       1 UNK         0.5006 
     36 O          27.4530   23.8109    0.1526 O.2       1 UNK        -0.5103 
     37 C          30.6002   27.8525   -2.2397 C.2       5 UNK         0.5055 
     38 O          31.4123   28.0567   -3.1441 O.2       5 UNK        -0.5220 
     39 N          30.5541   28.5808   -1.1159 N.am      6 UNK        -0.4450 
     40 CA         31.3996   29.7362   -0.8343 C.3       6 UNK         0.0367 
     41 CB         32.6106   29.3094    0.0215 C.3       6 UNK        -0.1929 
     42 C          30.5147   30.8075   -0.1883 C.2       6 UNK         0.5070 
     43 O          29.8311   31.5380   -0.9066 O.2       6 UNK        -0.5237 
     44 N          30.5156   30.8645    1.1453 N.am      7 UNK        -0.4739 
     45 CA         29.6472   31.6976    1.9661 C.3       7 UNK         0.0276 
     46 CB         30.2032   33.1320    2.0418 C.3       7 UNK        -0.1927 
     47 C          29.5818   31.0675    3.3585 C.2       7 UNK         0.5013 
     48 O          30.5278   30.3827    3.7586 O.2       7 UNK        -0.5193 
     49 N          28.5134   31.3658    4.1084 N.am      8 UNK        -0.4253 
     50 CA         28.3146   30.8996    5.4878 C.3       8 UNK         0.0242 
     51 CB         26.9038   31.2880    5.9592 C.3       8 UNK        -0.2000 
     52 C          29.3772   31.4108    6.4802 C.2       8 UNK         0.4948 
     53 O          29.6284   30.7483    7.4858 O.2       8 UNK        -0.5275 
     54 N          29.9882   32.5634    6.1724 N.am      9 UNK        -0.4246 
     55 CA         31.1217   33.1290    6.9056 C.3       9 UNK         0.0261 
     56 CB         31.1344   34.6533    6.7009 C.3       9 UNK        -0.1959 
     57 C          32.4761   32.5235    6.4876 C.2       9 UNK         0.5033 
     58 O          33.4394   32.6561    7.2441 O.2       9 UNK        -0.5390 
     59 N          32.5463   31.9032    5.3001 N.am      10 UNK        -0.4215 
     60 CA         33.7547   31.2732    4.7648 C.3       10 UNK         0.0240 
     61 CB         33.7823   31.4059    3.2323 C.3       10 UNK        -0.1982 
     62 C          33.8399   29.8022    5.1915 C.2       10 UNK         0.4970 
     63 O          34.9020   29.3662    5.6378 O.2       10 UNK        -0.4916 
     64 N          32.7256   29.0709    5.0581 N.am      11 UNK        -0.4279 
     65 CA         32.5762   27.6933    5.5425 C.3       11 UNK         0.1003 
     66 C          32.5582   27.5946    7.0945 C.2       11 UNK         0.5709 
     67 N          32.8691   26.4260    7.6403 N.am      11 UNK        -0.7358 
     68 O          32.2462   28.5459    7.8075 O.2       11 UNK        -0.4999 
     69 C69        31.3323   26.9999    4.9227 C.3       12 UNK        -0.0954 
     70 S70        31.4023   26.7966    3.1090 S.3       12 UNK        -0.2268 
     71 C71        32.9355   25.8346    2.9021 C.3       12 UNK         0.0203 
     72 H72        30.7754   22.2879    5.2336 H         1 UNK         0.0888 
     73 H73        29.5613   23.5026    5.6456 H         1 UNK         0.0888 
     74 H74        30.7382   23.8376    4.3812 H         1 UNK         0.0888 
     75 H75        30.3080   23.1101    2.2491 H         1 UNK         0.3017 
     76 H76        28.2458   21.1493    1.6376 H         1 UNK         0.0873 
     77 H77        30.0374   22.8681   -0.1543 H         1 UNK         0.0745 
     78 H78        28.8832   21.7218   -0.7447 H         1 UNK         0.0745 
     79 H79        31.9546   20.9998    2.2048 H         1 UNK         0.0705 
     80 H80        33.0209   20.5443    0.9032 H         1 UNK         0.0705 
     81 H81        32.5072   23.1505    2.9666 H         1 UNK         0.1334 
     82 H82        33.1285   26.3937    0.2409 H         1 UNK         0.1417 
     83 H83        32.5928   22.4078   -1.2546 H         1 UNK         0.1562 
     84 H84        33.7676   24.5082   -2.6150 H         1 UNK         0.0748 
     85 H85        33.1254   26.0504   -2.1062 H         1 UNK         0.0748 
     86 H86        30.4529   25.4258   -0.8861 H         1 UNK         0.0940 
     87 H87        29.2954   24.6269   -1.8947 H         1 UNK         0.0940 
     88 H88        29.3347   26.6361   -3.4688 H         1 UNK         0.0703 
     89 H89        28.0653   26.4510   -0.9238 H         1 UNK         0.3081 
     90 H90        26.2395   29.3818   -0.9291 H         1 UNK         0.0719 
     91 H91        24.9616   26.7338   -1.8033 H         1 UNK         0.0809 
     92 H92        24.1216   28.1018   -1.0737 H         1 UNK         0.0809 
     93 H93        24.8268   28.2568   -2.6737 H         1 UNK         0.0809 
     94 H94        25.6285   27.1667    0.6094 H         1 UNK         0.2990 
     95 H95        28.2658   27.1692    2.9641 H         1 UNK         0.0690 
     96 H96        26.4576   27.7627    4.5209 H         1 UNK         0.0788 
     97 H97        25.4063   28.2437    3.1892 H         1 UNK         0.0788 
     98 H98        26.8656   29.1518    3.5274 H         1 UNK         0.0788 
     99 H99        27.4045   25.1632    2.8105 H         1 UNK         0.2993 
    100 H100       24.8476   23.6716    3.1275 H         1 UNK         0.0949 
    101 H101       23.3528   23.9073    1.1786 H         1 UNK         0.0767 
    102 H102       24.6937   23.6815    0.0654 H         1 UNK         0.0767 
    103 H103       24.1647   22.3545    1.0992 H         1 UNK         0.0767 
    104 H104       26.7277   22.5113    2.9224 H         1 UNK         0.3013 
    105 H105       29.8081   28.4174   -0.4418 H         1 UNK         0.3121 
    106 H106       31.7745   30.1676   -1.7651 H         1 UNK         0.0774 
    107 H107       33.2738   28.6583   -0.5474 H         1 UNK         0.0815 
    108 H108       32.3130   28.7727    0.9228 H         1 UNK         0.0815 
    109 H109       33.2004   30.1750    0.3254 H         1 UNK         0.0815 
    110 H110       31.0446   30.1830    1.6755 H         1 UNK         0.2987 
    111 H111       28.6436   31.7025    1.5345 H         1 UNK         0.0949 
    112 H112       31.2071   33.1540    2.4676 H         1 UNK         0.0806 
    113 H113       30.2521   33.5910    1.0543 H         1 UNK         0.0806 
    114 H114       29.5696   33.7698    2.6591 H         1 UNK         0.0806 
    115 H115       27.7879   31.9510    3.7185 H         1 UNK         0.3010 
    116 H116       28.3855   29.8095    5.4803 H         1 UNK         0.0829 
    117 H117       26.1351   30.8536    5.3199 H         1 UNK         0.0813 
    118 H118       26.7189   30.9283    6.9725 H         1 UNK         0.0813 
    119 H119       26.7636   32.3697    5.9676 H         1 UNK         0.0813 
    120 H120       29.6840   33.0603    5.3482 H         1 UNK         0.3038 
    121 H121       30.9892   32.9308    7.9716 H         1 UNK         0.0769 
    122 H122       31.2690   34.9206    5.6519 H         1 UNK         0.0811 
    123 H123       31.9487   35.1152    7.2612 H         1 UNK         0.0811 
    124 H124       30.2067   35.1084    7.0484 H         1 UNK         0.0811 
    125 H125       31.6928   31.7470    4.7791 H         1 UNK         0.3204 
    126 H126       34.6356   31.7874    5.1556 H         1 UNK         0.0748 
    127 H127       33.7570   32.4514    2.9248 H         1 UNK         0.0771 
    128 H128       34.6937   30.9696    2.8214 H         1 UNK         0.0771 
    129 H129       32.9410   30.8986    2.7624 H         1 UNK         0.0771 
    130 H130       31.8933   29.4968    4.6595 H         1 UNK         0.2980 
    131 H131       33.4680   27.1530    5.2232 H         1 UNK         0.0545 
    132 H132       32.8548   26.3387    8.6444 H         1 UNK         0.3459 
    133 H133       33.1261   25.6334    7.0736 H         1 UNK         0.3459 
    134 H134       31.1889   26.0083    5.3542 H         1 UNK         0.0616 
    135 H135       30.4294   27.5649    5.1623 H         1 UNK         0.0616 
    136 H136       33.1479   25.2767    3.8152 H         1 UNK         0.0634 
    137 H137       33.7713   26.5207    2.7566 H         1 UNK         0.0634 
@<TRIPOS>BOND
     1    1    2 1    
     2    1   72 1    
     3    1   73 1    
     4    1   74 1    
     5    2    3 2    
     6    2    4 am   BACKBONE|DICT|INTERRES
     7    4    5 1    
     8    4   75 1    
     9    5    6 1    
    10    5   35 1    
    11    5   76 1    
    12    6    7 1    
    13    6   77 1    
    14    6   78 1    
    15    7    8 1    
    16    8    9 1    
    17    8   79 1    
    18    8   80 1    
    19    9   10 ar   
    20    9   14 ar   
    21   10   11 ar   
    22   10   81 1    
    23   11   12 ar   
    24   11   71 1    
    25   12   13 ar   
    26   12   82 1    
    27   13   14 ar   
    28   13   15 1    
    29   14   83 1    
    30   15   16 1    
    31   15   84 1    
    32   15   85 1    
    33   16   17 1    
    34   17   18 1    
    35   17   86 1    
    36   17   87 1    
    37   18   19 1    
    38   18   37 1    
    39   18   88 1    
    40   19   20 am   BACKBONE|DICT|INTERRES
    41   19   89 1    
    42   20   21 2    
    43   20   22 1    
    44   22   23 1    
    45   22   24 1    
    46   22   90 1    
    47   23   91 1    
    48   23   92 1    
    49   23   93 1    
    50   24   25 am   BACKBONE|DICT|INTERRES
    51   24   94 1    
    52   25   26 2    
    53   25   27 1    
    54   27   28 1    
    55   27   29 1    
    56   27   95 1    
    57   28   96 1    
    58   28   97 1    
    59   28   98 1    
    60   29   30 am   BACKBONE|DICT|INTERRES
    61   29   99 1    
    62   30   31 2    
    63   30   32 1    
    64   32   33 1    
    65   32   34 1    
    66   32  100 1    
    67   33  101 1    
    68   33  102 1    
    69   33  103 1    
    70   34   35 am   BACKBONE|DICT|INTERRES
    71   34  104 1    
    72   35   36 2    
    73   37   38 2    
    74   37   39 am   BACKBONE|DICT|INTERRES
    75   39   40 1    
    76   39  105 1    
    77   40   41 1    
    78   40   42 1    
    79   40  106 1    
    80   41  107 1    
    81   41  108 1    
    82   41  109 1    
    83   42   43 2    
    84   42   44 am   BACKBONE|DICT|INTERRES
    85   44   45 1    
    86   44  110 1    
    87   45   46 1    
    88   45   47 1    
    89   45  111 1    
    90   46  112 1    
    91   46  113 1    
    92   46  114 1    
    93   47   48 2    
    94   47   49 am   BACKBONE|DICT|INTERRES
    95   49   50 1    
    96   49  115 1    
    97   50   51 1    
    98   50   52 1    
    99   50  116 1    
   100   51  117 1    
   101   51  118 1    
   102   51  119 1    
   103   52   53 2    
   104   52   54 am   BACKBONE|DICT|INTERRES
   105   54   55 1    
   106   54  120 1    
   107   55   56 1    
   108   55   57 1    
   109   55  121 1    
   110   56  122 1    
   111   56  123 1    
   112   56  124 1    
   113   57   58 2    
   114   57   59 am   BACKBONE|DICT|INTERRES
   115   59   60 1    
   116   59  125 1    
   117   60   61 1    
   118   60   62 1    
   119   60  126 1    
   120   61  127 1    
   121   61  128 1    
   122   61  129 1    
   123   62   63 2    
   124   62   64 am   BACKBONE|DICT|INTERRES
   125   64   65 1    
   126   64  130 1    
   127   65   66 1    
   128   65   69 1    
   129   65  131 1    
   130   66   67 am   BACKBONE|DICT|INTERRES
   131   66   68 2    
   132   67  132 1    
   133   67  133 1    
   134   69   70 1    
   135   69  134 1    
   136   69  135 1    
   137   70   71 1    
   138   71  136 1    
   139   71  137 1    
@<TRIPOS>SUBSTRUCTURE
     1 UNK         1 GROUP             0       ****    0 ROOT    
