@<TRIPOS>MOLECULE
3R136
137   139    1
SMALL
USER_CHARGES


@<TRIPOS>ATOM
      1 CA         28.7154   25.4847   -2.8191 C.3       0 UNK        -0.1979 
      2 C          28.6236   24.7048   -1.5166 C.2       0 UNK         0.4864 
      3 O          28.3033   25.2848   -0.4778 O.2       0 UNK        -0.5359 
      4 N          28.8923   23.3927   -1.5673 N.am      1 UNK        -0.4318 
      5 CA         28.7750   22.4612   -0.4376 C.3       1 UNK         0.0824 
      6 C6         29.3771   21.0693   -0.7542 C.3       12 UNK        -0.0944 
      7 S7         31.0767   21.1323   -1.4156 S.3       12 UNK        -0.2672 
      8 C8         32.0948   21.1817    0.1000 C.3       12 UNK         0.0333 
      9 C9         32.2828   22.5851    0.6746 C.ar      12 UNK        -0.0807 
     10 C10        32.2343   22.7857    2.0593 C.ar      12 UNK        -0.0894 
     11 C11        32.4730   24.0521    2.6050 C.ar      12 UNK        -0.0804 
     12 C12        32.7502   25.1255    1.7542 C.ar      12 UNK        -0.0824 
     13 C13        32.8065   24.9417    0.3723 C.ar      12 UNK        -0.0762 
     14 C14        32.5743   23.6707   -0.1611 C.ar      12 UNK        -0.0782 
     15 C15        33.1557   26.1045   -0.5429 C.3       12 UNK         0.0230 
     16 S16        31.6735   26.9966   -1.1009 S.3       12 UNK        -0.2608 
     17 C17        31.4430   28.2446    0.2106 C.3       12 UNK        -0.0989 
     18 CA         29.9595   28.3592    0.6592 C.3       5 UNK         0.0716 
     19 N          29.4603   27.1521    1.3318 N.am      5 UNK        -0.4135 
     20 C          29.7698   26.7312    2.5674 C.2       4 UNK         0.5031 
     21 O          30.6446   27.2429    3.2639 O.2       4 UNK        -0.5229 
     22 CA         28.9460   25.5671    3.1511 C.3       4 UNK         0.0329 
     23 CB         28.7451   25.7077    4.6775 C.3       4 UNK        -0.2001 
     24 N          27.6474   25.3561    2.5028 N.am      4 UNK        -0.4303 
     25 C          26.6071   26.2012    2.4106 C.2       3 UNK         0.5044 
     26 O          26.6413   27.3713    2.7938 O.2       3 UNK        -0.5152 
     27 CA         25.3153   25.6529    1.7637 C.3       3 UNK         0.0319 
     28 CB         25.0057   26.3921    0.4514 C.3       3 UNK        -0.2001 
     29 N          25.3906   24.2124    1.4944 N.am      3 UNK        -0.4354 
     30 C          25.2912   23.2454    2.4175 C.2       2 UNK         0.4964 
     31 O          24.8847   23.4366    3.5632 O.2       2 UNK        -0.5047 
     32 CA         25.8350   21.8541    2.0363 C.3       2 UNK         0.0288 
     33 CB         24.7659   20.9942    1.3322 C.3       2 UNK        -0.2113 
     34 N          27.1065   21.9123    1.2869 N.am      2 UNK        -0.4145 
     35 C          27.3059   22.3233    0.0243 C.2       1 UNK         0.5006 
     36 O          26.3869   22.6218   -0.7434 O.2       1 UNK        -0.5103 
     37 C          29.6839   29.6570    1.4618 C.2       5 UNK         0.5055 
     38 O          30.3950   30.6467    1.2751 O.2       5 UNK        -0.5220 
     39 N          28.6486   29.6596    2.3208 N.am      6 UNK        -0.4450 
     40 CA         28.3535   30.7232    3.2905 C.3       6 UNK         0.0367 
     41 CB         27.1997   30.2762    4.2008 C.3       6 UNK        -0.1929 
     42 C          28.0624   32.1075    2.6841 C.2       6 UNK         0.5070 
     43 O          28.2229   33.1112    3.3784 O.2       6 UNK        -0.5237 
     44 N          27.6721   32.1465    1.4028 N.am      7 UNK        -0.4739 
     45 CA         27.5198   33.3721    0.6144 C.3       7 UNK         0.0276 
     46 CB         26.7930   33.0379   -0.6983 C.3       7 UNK        -0.1927 
     47 C          28.8566   34.0844    0.3241 C.2       7 UNK         0.5013 
     48 O          28.8473   35.2957    0.1007 O.2       7 UNK        -0.5193 
     49 N          29.9675   33.3340    0.3305 N.am      8 UNK        -0.4253 
     50 CA         31.3277   33.8463    0.1807 C.3       8 UNK         0.0242 
     51 CB         32.1153   32.9527   -0.7950 C.3       8 UNK        -0.2000 
     52 C          32.0062   33.9151    1.5550 C.2       8 UNK         0.4948 
     53 O          32.3732   35.0065    1.9922 O.2       8 UNK        -0.5275 
     54 N          32.1382   32.7582    2.2153 N.am      9 UNK        -0.4246 
     55 CA         32.7215   32.5795    3.5428 C.3       9 UNK         0.0261 
     56 CB         34.2333   32.8879    3.5440 C.3       9 UNK        -0.1959 
     57 C          32.4692   31.1298    3.9663 C.2       9 UNK         0.5033 
     58 O          32.8557   30.2160    3.2345 O.2       9 UNK        -0.5390 
     59 N          31.8263   30.9443    5.1249 N.am      10 UNK        -0.4215 
     60 CA         31.4966   29.6293    5.6767 C.3       10 UNK         0.0240 
     61 CB         30.4184   29.7928    6.7611 C.3       10 UNK        -0.1982 
     62 C          32.7324   28.9164    6.2511 C.2       10 UNK         0.4970 
     63 O          33.6286   29.5843    6.7742 O.2       10 UNK        -0.4916 
     64 N          32.7301   27.5777    6.1961 N.am      11 UNK        -0.4279 
     65 CA         33.7033   26.7179    6.8929 C.3       11 UNK         0.1003 
     66 C          33.6222   26.8702    8.4384 C.2       11 UNK         0.5709 
     67 N          34.7520   26.8060    9.1298 N.am      11 UNK        -0.7358 
     68 O          32.5435   27.0009    9.0151 O.2       11 UNK        -0.4999 
     69 C69        33.5548   25.2234    6.5000 C.3       12 UNK        -0.0954 
     70 S70        34.0019   24.8960    4.7639 S.3       12 UNK        -0.2268 
     71 C71        32.4226   24.2737    4.1102 C.3       12 UNK         0.0203 
     72 H72        29.1997   26.4457   -2.6526 H         1 UNK         0.0888 
     73 H73        29.2865   24.9449   -3.5741 H         1 UNK         0.0888 
     74 H74        27.7165   25.6726   -3.2110 H         1 UNK         0.0888 
     75 H75        29.1459   22.9707   -2.4484 H         1 UNK         0.3017 
     76 H76        29.3407   22.8976    0.3886 H         1 UNK         0.0873 
     77 H77        28.7633   20.5543   -1.4962 H         1 UNK         0.0745 
     78 H78        29.3695   20.4323    0.1321 H         1 UNK         0.0745 
     79 H79        31.6689   20.5070    0.8441 H         1 UNK         0.0705 
     80 H80        33.0814   20.7836   -0.1405 H         1 UNK         0.0705 
     81 H81        32.0274   21.9511    2.7153 H         1 UNK         0.1334 
     82 H82        32.9321   26.1049    2.1759 H         1 UNK         0.1417 
     83 H83        32.6331   23.5253   -1.2311 H         1 UNK         0.1562 
     84 H84        33.6854   25.7320   -1.4210 H         1 UNK         0.0748 
     85 H85        33.8442   26.7918   -0.0486 H         1 UNK         0.0748 
     86 H86        31.8040   29.1875   -0.2038 H         1 UNK         0.0940 
     87 H87        32.0841   28.0338    1.0675 H         1 UNK         0.0940 
     88 H88        29.3527   28.4599   -0.2418 H         1 UNK         0.0703 
     89 H89        28.8126   26.5850    0.7878 H         1 UNK         0.3081 
     90 H90        29.5286   24.6638    2.9671 H         1 UNK         0.0719 
     91 H91        28.1980   26.6174    4.9278 H         1 UNK         0.0809 
     92 H92        28.1894   24.8622    5.0828 H         1 UNK         0.0809 
     93 H93        29.6935   25.7521    5.2115 H         1 UNK         0.0809 
     94 H94        27.5204   24.4516    2.0765 H         1 UNK         0.2990 
     95 H95        24.4978   25.8378    2.4635 H         1 UNK         0.0690 
     96 H96        24.0647   26.0525    0.0184 H         1 UNK         0.0788 
     97 H97        25.7896   26.2428   -0.2918 H         1 UNK         0.0788 
     98 H98        24.9153   27.4662    0.6188 H         1 UNK         0.0788 
     99 H99        25.6993   23.9378    0.5658 H         1 UNK         0.2993 
    100 H100       26.0774   21.3531    2.9754 H         1 UNK         0.0949 
    101 H101       25.1557   20.0094    1.0743 H         1 UNK         0.0767 
    102 H102       23.9050   20.8414    1.9844 H         1 UNK         0.0767 
    103 H103       24.3948   21.4591    0.4187 H         1 UNK         0.0767 
    104 H104       27.9220   21.6696    1.8336 H         1 UNK         0.3013 
    105 H105       28.0817   28.8202    2.3987 H         1 UNK         0.3121 
    106 H106       29.2437   30.8391    3.9101 H         1 UNK         0.0774 
    107 H107       26.9795   31.0315    4.9564 H         1 UNK         0.0815 
    108 H108       26.2845   30.1031    3.6333 H         1 UNK         0.0815 
    109 H109       27.4459   29.3542    4.7281 H         1 UNK         0.0815 
    110 H110       27.5555   31.2694    0.9165 H         1 UNK         0.2987 
    111 H111       26.8986   34.0665    1.1846 H         1 UNK         0.0949 
    112 H112       27.3622   32.3351   -1.3082 H         1 UNK         0.0806 
    113 H113       25.8113   32.6029   -0.5098 H         1 UNK         0.0806 
    114 H114       26.6372   33.9364   -1.2972 H         1 UNK         0.0806 
    115 H115       29.8894   32.3524    0.5830 H         1 UNK         0.3010 
    116 H116       31.3099   34.8563   -0.2347 H         1 UNK         0.0829 
    117 H117       31.6705   32.9725   -1.7900 H         1 UNK         0.0813 
    118 H118       33.1453   33.2978   -0.8940 H         1 UNK         0.0813 
    119 H119       32.1490   31.9126   -0.4688 H         1 UNK         0.0813 
    120 H120       31.7571   31.9069    1.8044 H         1 UNK         0.3038 
    121 H121       32.2157   33.2558    4.2351 H         1 UNK         0.0769 
    122 H122       34.6732   32.6723    4.5186 H         1 UNK         0.0811 
    123 H123       34.4338   33.9370    3.3280 H         1 UNK         0.0811 
    124 H124       34.7651   32.2863    2.8059 H         1 UNK         0.0811 
    125 H125       31.5929   31.7454    5.6933 H         1 UNK         0.3204 
    126 H126       31.0804   29.0255    4.8729 H         1 UNK         0.0748 
    127 H127       30.1205   28.8234    7.1634 H         1 UNK         0.0771 
    128 H128       30.7751   30.3956    7.5975 H         1 UNK         0.0771 
    129 H129       29.5201   30.2656    6.3643 H         1 UNK         0.0771 
    130 H130       31.9655   27.1084    5.7341 H         1 UNK         0.2980 
    131 H131       34.6964   27.0500    6.5834 H         1 UNK         0.0545 
    132 H132       35.6403   26.6856    8.6682 H         1 UNK         0.3459 
    133 H133       34.7167   26.8867   10.1340 H         1 UNK         0.3459 
    134 H134       32.5408   24.8730    6.7014 H         1 UNK         0.0616 
    135 H135       34.2128   24.6015    7.1102 H         1 UNK         0.0616 
    136 H136       31.6445   24.9985    4.3352 H         1 UNK         0.0634 
    137 H137       32.1575   23.3532    4.6326 H         1 UNK         0.0634 
@<TRIPOS>BOND
     1    1    2 1    
     2    1   72 1    
     3    1   73 1    
     4    1   74 1    
     5    2    3 2    
     6    2    4 am   BACKBONE|DICT|INTERRES
     7    4    5 1    
     8    4   75 1    
     9    5    6 1    
    10    5   35 1    
    11    5   76 1    
    12    6    7 1    
    13    6   77 1    
    14    6   78 1    
    15    7    8 1    
    16    8    9 1    
    17    8   79 1    
    18    8   80 1    
    19    9   10 ar   
    20    9   14 ar   
    21   10   11 ar   
    22   10   81 1    
    23   11   12 ar   
    24   11   71 1    
    25   12   13 ar   
    26   12   82 1    
    27   13   14 ar   
    28   13   15 1    
    29   14   83 1    
    30   15   16 1    
    31   15   84 1    
    32   15   85 1    
    33   16   17 1    
    34   17   18 1    
    35   17   86 1    
    36   17   87 1    
    37   18   19 1    
    38   18   37 1    
    39   18   88 1    
    40   19   20 am   BACKBONE|DICT|INTERRES
    41   19   89 1    
    42   20   21 2    
    43   20   22 1    
    44   22   23 1    
    45   22   24 1    
    46   22   90 1    
    47   23   91 1    
    48   23   92 1    
    49   23   93 1    
    50   24   25 am   BACKBONE|DICT|INTERRES
    51   24   94 1    
    52   25   26 2    
    53   25   27 1    
    54   27   28 1    
    55   27   29 1    
    56   27   95 1    
    57   28   96 1    
    58   28   97 1    
    59   28   98 1    
    60   29   30 am   BACKBONE|DICT|INTERRES
    61   29   99 1    
    62   30   31 2    
    63   30   32 1    
    64   32   33 1    
    65   32   34 1    
    66   32  100 1    
    67   33  101 1    
    68   33  102 1    
    69   33  103 1    
    70   34   35 am   BACKBONE|DICT|INTERRES
    71   34  104 1    
    72   35   36 2    
    73   37   38 2    
    74   37   39 am   BACKBONE|DICT|INTERRES
    75   39   40 1    
    76   39  105 1    
    77   40   41 1    
    78   40   42 1    
    79   40  106 1    
    80   41  107 1    
    81   41  108 1    
    82   41  109 1    
    83   42   43 2    
    84   42   44 am   BACKBONE|DICT|INTERRES
    85   44   45 1    
    86   44  110 1    
    87   45   46 1    
    88   45   47 1    
    89   45  111 1    
    90   46  112 1    
    91   46  113 1    
    92   46  114 1    
    93   47   48 2    
    94   47   49 am   BACKBONE|DICT|INTERRES
    95   49   50 1    
    96   49  115 1    
    97   50   51 1    
    98   50   52 1    
    99   50  116 1    
   100   51  117 1    
   101   51  118 1    
   102   51  119 1    
   103   52   53 2    
   104   52   54 am   BACKBONE|DICT|INTERRES
   105   54   55 1    
   106   54  120 1    
   107   55   56 1    
   108   55   57 1    
   109   55  121 1    
   110   56  122 1    
   111   56  123 1    
   112   56  124 1    
   113   57   58 2    
   114   57   59 am   BACKBONE|DICT|INTERRES
   115   59   60 1    
   116   59  125 1    
   117   60   61 1    
   118   60   62 1    
   119   60  126 1    
   120   61  127 1    
   121   61  128 1    
   122   61  129 1    
   123   62   63 2    
   124   62   64 am   BACKBONE|DICT|INTERRES
   125   64   65 1    
   126   64  130 1    
   127   65   66 1    
   128   65   69 1    
   129   65  131 1    
   130   66   67 am   BACKBONE|DICT|INTERRES
   131   66   68 2    
   132   67  132 1    
   133   67  133 1    
   134   69   70 1    
   135   69  134 1    
   136   69  135 1    
   137   70   71 1    
   138   71  136 1    
   139   71  137 1    
@<TRIPOS>SUBSTRUCTURE
     1 UNK         1 GROUP             0       ****    0 ROOT    
