@<TRIPOS>MOLECULE
3R136
137   139    1
SMALL
USER_CHARGES


@<TRIPOS>ATOM
      1 CA         27.4855   19.4812   -1.7807 C.3       0 UNK        -0.1979 
      2 C          28.3354   20.1791   -0.7294 C.2       0 UNK         0.4864 
      3 O          27.8218   21.0261    0.0030 O.2       0 UNK        -0.5359 
      4 N          29.6284   19.8295   -0.6545 N.am      1 UNK        -0.4318 
      5 CA         30.6531   20.3696    0.2496 C.3       1 UNK         0.0824 
      6 C6         30.3029   20.2042    1.7579 C.3       12 UNK        -0.0944 
      7 S7         31.7047   20.5802    2.8659 S.3       12 UNK        -0.2672 
      8 C8         30.8626   20.8096    4.4628 C.3       12 UNK         0.0333 
      9 C9         30.2072   22.1793    4.6135 C.ar      12 UNK        -0.0807 
     10 C10        30.9772   23.2939    4.9661 C.ar      12 UNK        -0.0894 
     11 C11        30.3691   24.5267    5.2308 C.ar      12 UNK        -0.0804 
     12 C12        28.9774   24.6369    5.1371 C.ar      12 UNK        -0.0824 
     13 C13        28.1971   23.5389    4.7631 C.ar      12 UNK        -0.0762 
     14 C14        28.8200   22.3152    4.4933 C.ar      12 UNK        -0.0782 
     15 C15        26.6776   23.6488    4.7247 C.3       12 UNK         0.0230 
     16 S16        26.0642   24.4308    3.1982 S.3       12 UNK        -0.2608 
     17 C17        26.1289   26.2115    3.6096 C.3       12 UNK        -0.0989 
     18 CA         27.1417   26.9843    2.7219 C.3       5 UNK         0.0716 
     19 N          26.8605   26.8678    1.2834 N.am      5 UNK        -0.4135 
     20 C          25.8144   27.3867    0.6221 C.2       4 UNK         0.5031 
     21 O          24.8811   27.9730    1.1731 O.2       4 UNK        -0.5229 
     22 CA         25.8136   27.2449   -0.9173 C.3       4 UNK         0.0329 
     23 CB         25.1895   28.4773   -1.6062 C.3       4 UNK        -0.2001 
     24 N          27.1249   26.9444   -1.5155 N.am      4 UNK        -0.4303 
     25 C          28.2510   27.6682   -1.4272 C.2       3 UNK         0.5044 
     26 O          28.3659   28.6800   -0.7333 O.2       3 UNK        -0.5152 
     27 CA         29.4777   27.0988   -2.1603 C.3       3 UNK         0.0319 
     28 CB         30.4906   28.1966   -2.5324 C.3       3 UNK        -0.2001 
     29 N          30.1342   26.1165   -1.3012 N.am      3 UNK        -0.4354 
     30 C          29.6814   24.8817   -1.0565 C.2       2 UNK         0.4964 
     31 O          28.7443   24.3549   -1.6613 O.2       2 UNK        -0.5047 
     32 CA         30.3275   24.1805    0.1388 C.3       2 UNK         0.0288 
     33 CB         29.6999   24.7106    1.4344 C.3       2 UNK        -0.2113 
     34 N          30.1036   22.7431    0.1135 N.am      2 UNK        -0.4145 
     35 C          31.0406   21.8195   -0.1041 C.2       1 UNK         0.5006 
     36 O          32.1741   22.0673   -0.5212 O.2       1 UNK        -0.5103 
     37 C          27.3398   28.4563    3.1582 C.2       5 UNK         0.5055 
     38 O          26.9962   28.8149    4.2870 O.2       5 UNK        -0.5220 
     39 N          27.8845   29.2912    2.2579 N.am      6 UNK        -0.4450 
     40 CA         28.1446   30.7129    2.4779 C.3       6 UNK         0.0367 
     41 CB         28.3321   31.4044    1.1153 C.3       6 UNK        -0.1929 
     42 C          29.3572   30.9264    3.3975 C.2       6 UNK         0.5070 
     43 O          30.4529   31.2172    2.9153 O.2       6 UNK        -0.5237 
     44 N          29.1501   30.7881    4.7127 N.am      7 UNK        -0.4739 
     45 CA         30.1702   30.9616    5.7564 C.3       7 UNK         0.0276 
     46 CB         29.5508   30.6626    7.1296 C.3       7 UNK        -0.1927 
     47 C          30.8474   32.3455    5.7528 C.2       7 UNK         0.5013 
     48 O          32.0286   32.4399    6.0856 O.2       7 UNK        -0.5193 
     49 N          30.1187   33.3782    5.3037 N.am      8 UNK        -0.4253 
     50 CA         30.6305   34.7308    5.0535 C.3       8 UNK         0.0242 
     51 CB         29.4516   35.6613    4.7256 C.3       8 UNK        -0.2000 
     52 C          31.6949   34.8006    3.9385 C.2       8 UNK         0.4948 
     53 O          32.5085   35.7246    3.9463 O.2       8 UNK        -0.5275 
     54 N          31.6885   33.8214    3.0235 N.am      9 UNK        -0.4246 
     55 CA         32.6857   33.6191    1.9712 C.3       9 UNK         0.0261 
     56 CB         31.9537   33.4637    0.6249 C.3       9 UNK        -0.1959 
     57 C          33.5692   32.3935    2.2810 C.2       9 UNK         0.5033 
     58 O          34.1352   31.8056    1.3569 O.2       9 UNK        -0.5390 
     59 N          33.6471   32.0018    3.5646 N.am      10 UNK        -0.4215 
     60 CA         34.3775   30.8487    4.1059 C.3       10 UNK         0.0240 
     61 CB         35.9009   31.0780    4.0038 C.3       10 UNK        -0.1982 
     62 C          33.9362   29.4963    3.5087 C.2       10 UNK         0.4970 
     63 O          34.7524   28.5767    3.4287 O.2       10 UNK        -0.4916 
     64 N          32.6641   29.4047    3.0934 N.am      11 UNK        -0.4279 
     65 CA         32.0484   28.2545    2.4126 C.3       11 UNK         0.1003 
     66 C          32.5890   27.9924    0.9751 C.2       11 UNK         0.5709 
     67 N          33.3362   28.9053    0.3637 N.am      11 UNK        -0.7358 
     68 O          32.2778   26.9667    0.3752 O.2       11 UNK        -0.4999 
     69 C69        31.9929   26.9804    3.3062 C.3       12 UNK        -0.0954 
     70 S70        30.9080   27.2341    4.7475 S.3       12 UNK        -0.2268 
     71 C71        31.2044   25.7122    5.7047 C.3       12 UNK         0.0203 
     72 H72        27.0754   20.2131   -2.4760 H         1 UNK         0.0888 
     73 H73        28.0594   18.7531   -2.3536 H         1 UNK         0.0888 
     74 H74        26.6551   18.9600   -1.3051 H         1 UNK         0.0888 
     75 H75        29.9744   19.1408   -1.3088 H         1 UNK         0.3017 
     76 H76        31.5405   19.7627    0.0609 H         1 UNK         0.0873 
     77 H77        29.9919   19.1769    1.9532 H         1 UNK         0.0745 
     78 H78        29.4559   20.8324    2.0361 H         1 UNK         0.0745 
     79 H79        31.5971   20.6804    5.2591 H         1 UNK         0.0705 
     80 H80        30.1303   20.0127    4.6026 H         1 UNK         0.0705 
     81 H81        32.0485   23.1880    5.0711 H         1 UNK         0.1334 
     82 H82        28.5023   25.5780    5.3753 H         1 UNK         0.1417 
     83 H83        28.2187   21.4550    4.2316 H         1 UNK         0.1562 
     84 H84        26.3172   24.1922    5.5993 H         1 UNK         0.0748 
     85 H85        26.2337   22.6546    4.7954 H         1 UNK         0.0748 
     86 H86        26.3746   26.3278    4.6659 H         1 UNK         0.0940 
     87 H87        25.1264   26.6270    3.4958 H         1 UNK         0.0940 
     88 H88        28.1154   26.5246    2.8850 H         1 UNK         0.0703 
     89 H89        27.5590   26.3915    0.7345 H         1 UNK         0.3081 
     90 H90        25.1780   26.3856   -1.1357 H         1 UNK         0.0719 
     91 H91        25.7429   29.3891   -1.3780 H         1 UNK         0.0809 
     92 H92        25.1693   28.3593   -2.6896 H         1 UNK         0.0809 
     93 H93        24.1598   28.6323   -1.2817 H         1 UNK         0.0809 
     94 H94        27.1776   26.0736   -2.0308 H         1 UNK         0.2990 
     95 H95        29.1454   26.6140   -3.0808 H         1 UNK         0.0690 
     96 H96        31.3372   27.7840   -3.0812 H         1 UNK         0.0788 
     97 H97        30.8819   28.7064   -1.6508 H         1 UNK         0.0788 
     98 H98        30.0282   28.9533   -3.1673 H         1 UNK         0.0788 
     99 H99        30.9062   26.4635   -0.7337 H         1 UNK         0.2993 
    100 H100       31.3973   24.4022    0.1419 H         1 UNK         0.0949 
    101 H101       28.6414   24.4575    1.5029 H         1 UNK         0.0767 
    102 H102       30.1932   24.2861    2.3080 H         1 UNK         0.0767 
    103 H103       29.7893   25.7944    1.4982 H         1 UNK         0.0767 
    104 H104       29.1606   22.4185    0.3102 H         1 UNK         0.3013 
    105 H105       28.1170   28.9384    1.3349 H         1 UNK         0.3121 
    106 H106       27.2720   31.1589    2.9599 H         1 UNK         0.0774 
    107 H107       28.5162   32.4723    1.2396 H         1 UNK         0.0815 
    108 H108       29.1775   30.9903    0.5638 H         1 UNK         0.0815 
    109 H109       27.4449   31.2971    0.4908 H         1 UNK         0.0815 
    110 H110       28.2402   30.4530    5.0088 H         1 UNK         0.2987 
    111 H111       30.9534   30.2241    5.5694 H         1 UNK         0.0949 
    112 H112       29.1648   29.6438    7.1749 H         1 UNK         0.0806 
    113 H113       30.2932   30.7613    7.9230 H         1 UNK         0.0806 
    114 H114       28.7315   31.3442    7.3610 H         1 UNK         0.0806 
    115 H115       29.1558   33.2017    5.0561 H         1 UNK         0.3010 
    116 H116       31.1015   35.0826    5.9739 H         1 UNK         0.0829 
    117 H117       28.7291   35.6910    5.5416 H         1 UNK         0.0813 
    118 H118       29.7953   36.6840    4.5634 H         1 UNK         0.0813 
    119 H119       28.9275   35.3471    3.8220 H         1 UNK         0.0813 
    120 H120       31.0098   33.0700    3.1102 H         1 UNK         0.3038 
    121 H121       33.3498   34.4829    1.9027 H         1 UNK         0.0769 
    122 H122       32.6614   33.3857   -0.2014 H         1 UNK         0.0811 
    123 H123       31.3130   34.3213    0.4203 H         1 UNK         0.0811 
    124 H124       31.3315   32.5679    0.6074 H         1 UNK         0.0811 
    125 H125       33.1179   32.5250    4.2535 H         1 UNK         0.3204 
    126 H126       34.1230   30.8010    5.1656 H         1 UNK         0.0748 
    127 H127       36.4524   30.2976    4.5295 H         1 UNK         0.0771 
    128 H128       36.2410   31.0753    2.9677 H         1 UNK         0.0771 
    129 H129       36.1891   32.0303    4.4491 H         1 UNK         0.0771 
    130 H130       32.0631   30.2211    3.1549 H         1 UNK         0.2980 
    131 H131       31.0164   28.5566    2.2325 H         1 UNK         0.0545 
    132 H132       33.6629   28.7240   -0.5711 H         1 UNK         0.3459 
    133 H133       33.5810   29.7738    0.8234 H         1 UNK         0.3459 
    134 H134       32.9878   26.6969    3.6496 H         1 UNK         0.0616 
    135 H135       31.6211   26.1193    2.7571 H         1 UNK         0.0616 
    136 H136       32.2696   25.4772    5.6865 H         1 UNK         0.0634 
    137 H137       30.9538   25.9106    6.7475 H         1 UNK         0.0634 
@<TRIPOS>BOND
     1    1    2 1    
     2    1   72 1    
     3    1   73 1    
     4    1   74 1    
     5    2    3 2    
     6    2    4 am   BACKBONE|DICT|INTERRES
     7    4    5 1    
     8    4   75 1    
     9    5    6 1    
    10    5   35 1    
    11    5   76 1    
    12    6    7 1    
    13    6   77 1    
    14    6   78 1    
    15    7    8 1    
    16    8    9 1    
    17    8   79 1    
    18    8   80 1    
    19    9   10 ar   
    20    9   14 ar   
    21   10   11 ar   
    22   10   81 1    
    23   11   12 ar   
    24   11   71 1    
    25   12   13 ar   
    26   12   82 1    
    27   13   14 ar   
    28   13   15 1    
    29   14   83 1    
    30   15   16 1    
    31   15   84 1    
    32   15   85 1    
    33   16   17 1    
    34   17   18 1    
    35   17   86 1    
    36   17   87 1    
    37   18   19 1    
    38   18   37 1    
    39   18   88 1    
    40   19   20 am   BACKBONE|DICT|INTERRES
    41   19   89 1    
    42   20   21 2    
    43   20   22 1    
    44   22   23 1    
    45   22   24 1    
    46   22   90 1    
    47   23   91 1    
    48   23   92 1    
    49   23   93 1    
    50   24   25 am   BACKBONE|DICT|INTERRES
    51   24   94 1    
    52   25   26 2    
    53   25   27 1    
    54   27   28 1    
    55   27   29 1    
    56   27   95 1    
    57   28   96 1    
    58   28   97 1    
    59   28   98 1    
    60   29   30 am   BACKBONE|DICT|INTERRES
    61   29   99 1    
    62   30   31 2    
    63   30   32 1    
    64   32   33 1    
    65   32   34 1    
    66   32  100 1    
    67   33  101 1    
    68   33  102 1    
    69   33  103 1    
    70   34   35 am   BACKBONE|DICT|INTERRES
    71   34  104 1    
    72   35   36 2    
    73   37   38 2    
    74   37   39 am   BACKBONE|DICT|INTERRES
    75   39   40 1    
    76   39  105 1    
    77   40   41 1    
    78   40   42 1    
    79   40  106 1    
    80   41  107 1    
    81   41  108 1    
    82   41  109 1    
    83   42   43 2    
    84   42   44 am   BACKBONE|DICT|INTERRES
    85   44   45 1    
    86   44  110 1    
    87   45   46 1    
    88   45   47 1    
    89   45  111 1    
    90   46  112 1    
    91   46  113 1    
    92   46  114 1    
    93   47   48 2    
    94   47   49 am   BACKBONE|DICT|INTERRES
    95   49   50 1    
    96   49  115 1    
    97   50   51 1    
    98   50   52 1    
    99   50  116 1    
   100   51  117 1    
   101   51  118 1    
   102   51  119 1    
   103   52   53 2    
   104   52   54 am   BACKBONE|DICT|INTERRES
   105   54   55 1    
   106   54  120 1    
   107   55   56 1    
   108   55   57 1    
   109   55  121 1    
   110   56  122 1    
   111   56  123 1    
   112   56  124 1    
   113   57   58 2    
   114   57   59 am   BACKBONE|DICT|INTERRES
   115   59   60 1    
   116   59  125 1    
   117   60   61 1    
   118   60   62 1    
   119   60  126 1    
   120   61  127 1    
   121   61  128 1    
   122   61  129 1    
   123   62   63 2    
   124   62   64 am   BACKBONE|DICT|INTERRES
   125   64   65 1    
   126   64  130 1    
   127   65   66 1    
   128   65   69 1    
   129   65  131 1    
   130   66   67 am   BACKBONE|DICT|INTERRES
   131   66   68 2    
   132   67  132 1    
   133   67  133 1    
   134   69   70 1    
   135   69  134 1    
   136   69  135 1    
   137   70   71 1    
   138   71  136 1    
   139   71  137 1    
@<TRIPOS>SUBSTRUCTURE
     1 UNK         1 GROUP             0       ****    0 ROOT    
