@<TRIPOS>MOLECULE
3R136
137   139    1
SMALL
USER_CHARGES


@<TRIPOS>ATOM
      1 CA         31.2751   23.9224   -5.6847 C.3       0 UNK        -0.1979 
      2 C          31.1127   24.2957   -4.2185 C.2       0 UNK         0.4864 
      3 O          32.0963   24.6411   -3.5635 O.2       0 UNK        -0.5359 
      4 N          29.8819   24.2283   -3.7022 N.am      1 UNK        -0.4318 
      5 CA         29.5154   24.5687   -2.3306 C.3       1 UNK         0.0824 
      6 C6         29.8121   23.4017   -1.3519 C.3       12 UNK        -0.0944 
      7 S7         29.6894   23.9015    0.3955 S.3       12 UNK        -0.2672 
      8 C8         31.3633   23.5465    1.0154 C.3       12 UNK         0.0333 
      9 C9         31.5170   24.0365    2.4469 C.ar      12 UNK        -0.0807 
     10 C10        32.4190   25.0546    2.7660 C.ar      12 UNK        -0.0894 
     11 C11        32.5399   25.5198    4.0799 C.ar      12 UNK        -0.0804 
     12 C12        31.7304   24.9532    5.0763 C.ar      12 UNK        -0.0824 
     13 C13        30.8141   23.9392    4.7713 C.ar      12 UNK        -0.0762 
     14 C14        30.7394   23.4688    3.4562 C.ar      12 UNK        -0.0782 
     15 C15        29.9319   23.3574    5.8776 C.3       12 UNK         0.0230 
     16 S16        28.3182   22.7095    5.3030 S.3       12 UNK        -0.2608 
     17 C17        27.2642   24.1980    5.2506 C.3       12 UNK        -0.0989 
     18 CA         27.3258   24.9724    3.8962 C.3       5 UNK         0.0716 
     19 N          26.0282   25.4831    3.4449 N.am      5 UNK        -0.4135 
     20 C          25.1839   26.2684    4.1348 C.2       4 UNK         0.5031 
     21 O          25.3531   26.5871    5.3122 O.2       4 UNK        -0.5229 
     22 CA         23.9358   26.8126    3.4057 C.3       4 UNK         0.0329 
     23 CB         24.0243   28.3422    3.2635 C.3       4 UNK        -0.2001 
     24 N          23.7186   26.2364    2.0780 N.am      4 UNK        -0.4303 
     25 C          23.3195   24.9829    1.8231 C.2       3 UNK         0.5044 
     26 O          22.9688   24.1862    2.6936 O.2       3 UNK        -0.5152 
     27 CA         23.3562   24.5279    0.3498 C.3       3 UNK         0.0319 
     28 CB         21.9391   24.5260   -0.2462 C.3       3 UNK        -0.2001 
     29 N          24.2409   25.3240   -0.5149 N.am      3 UNK        -0.4354 
     30 C          25.5643   25.4679   -0.3524 C.2       2 UNK         0.4964 
     31 O          26.1988   24.9752    0.5843 O.2       2 UNK        -0.5047 
     32 CA         26.2740   26.3943   -1.3495 C.3       2 UNK         0.0288 
     33 CB         26.2672   27.8389   -0.8210 C.3       2 UNK        -0.2113 
     34 N          27.6571   25.9691   -1.5536 N.am      2 UNK        -0.4145 
     35 C          28.0278   24.9581   -2.3477 C.2       1 UNK         0.5006 
     36 O          27.2495   24.3387   -3.0807 O.2       1 UNK        -0.5103 
     37 C          28.3418   26.1307    3.8784 C.2       5 UNK         0.5055 
     38 O          28.7514   26.6153    4.9353 O.2       5 UNK        -0.5220 
     39 N          28.6925   26.5910    2.6705 N.am      6 UNK        -0.4450 
     40 CA         29.6691   27.6529    2.4585 C.3       6 UNK         0.0367 
     41 CB         29.0350   29.0307    2.7249 C.3       6 UNK        -0.1929 
     42 C          30.2243   27.5882    1.0357 C.2       6 UNK         0.5070 
     43 O          29.4775   27.2959    0.1007 O.2       6 UNK        -0.5237 
     44 N          31.5124   27.9150    0.8984 N.am      7 UNK        -0.4739 
     45 CA         32.2130   28.0760   -0.3792 C.3       7 UNK         0.0276 
     46 CB         32.8031   26.7268   -0.8278 C.3       7 UNK        -0.1927 
     47 C          33.2930   29.1714   -0.2986 C.2       7 UNK         0.5013 
     48 O          34.1229   29.2696   -1.2036 O.2       7 UNK        -0.5193 
     49 N          33.2832   29.9661    0.7790 N.am      8 UNK        -0.4253 
     50 CA         34.2385   31.0253    1.0807 C.3       8 UNK         0.0242 
     51 CB         35.5572   30.4198    1.6002 C.3       8 UNK        -0.2000 
     52 C          33.6109   31.9313    2.1423 C.2       8 UNK         0.4948 
     53 O          32.7408   31.4760    2.8922 O.2       8 UNK        -0.5275 
     54 N          34.0972   33.1766    2.2274 N.am      9 UNK        -0.4246 
     55 CA         33.6345   34.2065    3.1684 C.3       9 UNK         0.0261 
     56 CB         34.3328   35.5373    2.8431 C.3       9 UNK        -0.1959 
     57 C          33.8213   33.8517    4.6567 C.2       9 UNK         0.5033 
     58 O          33.1191   34.4118    5.4991 O.2       9 UNK        -0.5390 
     59 N          34.7422   32.9235    4.9537 N.am      10 UNK        -0.4215 
     60 CA         34.9505   32.3441    6.2823 C.3       10 UNK         0.0240 
     61 CB         36.2537   31.5280    6.2790 C.3       10 UNK        -0.1982 
     62 C          33.7731   31.4707    6.7564 C.2       10 UNK         0.4970 
     63 O          33.5421   31.3923    7.9638 O.2       10 UNK        -0.4916 
     64 N          33.0620   30.8396    5.8130 N.am      11 UNK        -0.4279 
     65 CA         31.8634   30.0280    6.0675 C.3       11 UNK         0.1003 
     66 C          30.5627   30.8057    5.7367 C.2       11 UNK         0.5709 
     67 N          30.5388   31.6281    4.6942 N.am      11 UNK        -0.7358 
     68 O          29.5679   30.6743    6.4451 O.2       11 UNK        -0.4999 
     69 C69        31.9094   28.6829    5.3005 C.3       12 UNK        -0.0954 
     70 S70        33.2767   27.6170    5.8611 S.3       12 UNK        -0.2268 
     71 C71        33.5889   26.5948    4.3804 C.3       12 UNK         0.0203 
     72 H72        30.3275   23.6338   -6.1394 H         1 UNK         0.0888 
     73 H73        31.9672   23.0867   -5.7842 H         1 UNK         0.0888 
     74 H74        31.6768   24.7666   -6.2444 H         1 UNK         0.0888 
     75 H75        29.0915   23.9658   -4.2790 H         1 UNK         0.3017 
     76 H76        30.0893   25.4489   -2.0337 H         1 UNK         0.0873 
     77 H77        30.8158   23.0136   -1.5311 H         1 UNK         0.0745 
     78 H78        29.1350   22.5634   -1.5266 H         1 UNK         0.0745 
     79 H79        31.5429   22.4712    0.9774 H         1 UNK         0.0705 
     80 H80        32.1045   24.0101    0.3644 H         1 UNK         0.0705 
     81 H81        33.0367   25.4817    1.9889 H         1 UNK         0.1334 
     82 H82        31.8086   25.2973    6.0978 H         1 UNK         0.1417 
     83 H83        30.0537   22.6741    3.1978 H         1 UNK         0.1562 
     84 H84        29.7574   24.1033    6.6548 H         1 UNK         0.0748 
     85 H85        30.4792   22.5413    6.3507 H         1 UNK         0.0748 
     86 H86        27.4636   24.8344    6.1144 H         1 UNK         0.0940 
     87 H87        26.2489   23.8320    5.4107 H         1 UNK         0.0940 
     88 H88        27.6360   24.2712    3.1191 H         1 UNK         0.0703 
     89 H89        25.8261   25.3003    2.4662 H         1 UNK         0.3081 
     90 H90        23.0694   26.5739    4.0261 H         1 UNK         0.0719 
     91 H91        24.1372   28.8203    4.2376 H         1 UNK         0.0809 
     92 H92        24.8778   28.6423    2.6538 H         1 UNK         0.0809 
     93 H93        23.1229   28.7527    2.8080 H         1 UNK         0.0809 
     94 H94        23.9698   26.8151    1.2903 H         1 UNK         0.2990 
     95 H95        23.7316   23.5025    0.3427 H         1 UNK         0.0690 
     96 H96        21.9319   24.1110   -1.2544 H         1 UNK         0.0788 
     97 H97        21.5188   25.5315   -0.2921 H         1 UNK         0.0788 
     98 H98        21.2625   23.9175    0.3558 H         1 UNK         0.0788 
     99 H99        23.7984   25.7860   -1.2970 H         1 UNK         0.2993 
    100 H100       25.7487   26.3645   -2.3068 H         1 UNK         0.0949 
    101 H101       26.7495   27.9144    0.1549 H         1 UNK         0.0767 
    102 H102       26.7899   28.5112   -1.5018 H         1 UNK         0.0767 
    103 H103       25.2491   28.2151   -0.7133 H         1 UNK         0.0767 
    104 H104       28.3556   26.4081   -0.9525 H         1 UNK         0.3013 
    105 H105       28.3492   26.1438    1.8282 H         1 UNK         0.3121 
    106 H106       30.4961   27.4888    3.1493 H         1 UNK         0.0774 
    107 H107       28.1716   29.2048    2.0818 H         1 UNK         0.0815 
    108 H108       28.7061   29.1273    3.7596 H         1 UNK         0.0815 
    109 H109       29.7488   29.8340    2.5385 H         1 UNK         0.0815 
    110 H110       32.0595   28.1017    1.7258 H         1 UNK         0.2987 
    111 H111       31.4991   28.4090   -1.1360 H         1 UNK         0.0949 
    112 H112       32.0346   25.9587   -0.8863 H         1 UNK         0.0806 
    113 H113       33.2491   26.8032   -1.8202 H         1 UNK         0.0806 
    114 H114       33.5801   26.3786   -0.1476 H         1 UNK         0.0806 
    115 H115       32.5208   29.9169    1.4422 H         1 UNK         0.3010 
    116 H116       34.4229   31.6111    0.1775 H         1 UNK         0.0829 
    117 H117       36.2817   31.1982    1.8425 H         1 UNK         0.0813 
    118 H118       36.0210   29.7748    0.8538 H         1 UNK         0.0813 
    119 H119       35.3998   29.8254    2.5014 H         1 UNK         0.0813 
    120 H120       34.8215   33.4564    1.5807 H         1 UNK         0.3038 
    121 H121       32.5621   34.3357    3.0067 H         1 UNK         0.0769 
    122 H122       34.1229   35.8580    1.8225 H         1 UNK         0.0811 
    123 H123       35.4150   35.4647    2.9584 H         1 UNK         0.0811 
    124 H124       33.9876   36.3321    3.5061 H         1 UNK         0.0811 
    125 H125       35.2912   32.5424    4.1977 H         1 UNK         0.3204 
    126 H126       35.0605   33.1647    6.9946 H         1 UNK         0.0748 
    127 H127       36.4514   31.1061    7.2656 H         1 UNK         0.0771 
    128 H128       36.2093   30.6972    5.5733 H         1 UNK         0.0771 
    129 H129       37.1110   32.1483    6.0166 H         1 UNK         0.0771 
    130 H130       33.2753   31.0063    4.8378 H         1 UNK         0.2980 
    131 H131       31.8091   29.7848    7.1305 H         1 UNK         0.0545 
    132 H132       31.3364   31.6942    4.0685 H         1 UNK         0.3459 
    133 H133       29.6977   32.1435    4.4938 H         1 UNK         0.3459 
    134 H134       32.0132   28.8689    4.2308 H         1 UNK         0.0616 
    135 H135       30.9808   28.1265    5.4395 H         1 UNK         0.0616 
    136 H136       34.5489   26.0955    4.5156 H         1 UNK         0.0634 
    137 H137       33.7090   27.2572    3.5218 H         1 UNK         0.0634 
@<TRIPOS>BOND
     1    1    2 1    
     2    1   72 1    
     3    1   73 1    
     4    1   74 1    
     5    2    3 2    
     6    2    4 am   BACKBONE|DICT|INTERRES
     7    4    5 1    
     8    4   75 1    
     9    5    6 1    
    10    5   35 1    
    11    5   76 1    
    12    6    7 1    
    13    6   77 1    
    14    6   78 1    
    15    7    8 1    
    16    8    9 1    
    17    8   79 1    
    18    8   80 1    
    19    9   10 ar   
    20    9   14 ar   
    21   10   11 ar   
    22   10   81 1    
    23   11   12 ar   
    24   11   71 1    
    25   12   13 ar   
    26   12   82 1    
    27   13   14 ar   
    28   13   15 1    
    29   14   83 1    
    30   15   16 1    
    31   15   84 1    
    32   15   85 1    
    33   16   17 1    
    34   17   18 1    
    35   17   86 1    
    36   17   87 1    
    37   18   19 1    
    38   18   37 1    
    39   18   88 1    
    40   19   20 am   BACKBONE|DICT|INTERRES
    41   19   89 1    
    42   20   21 2    
    43   20   22 1    
    44   22   23 1    
    45   22   24 1    
    46   22   90 1    
    47   23   91 1    
    48   23   92 1    
    49   23   93 1    
    50   24   25 am   BACKBONE|DICT|INTERRES
    51   24   94 1    
    52   25   26 2    
    53   25   27 1    
    54   27   28 1    
    55   27   29 1    
    56   27   95 1    
    57   28   96 1    
    58   28   97 1    
    59   28   98 1    
    60   29   30 am   BACKBONE|DICT|INTERRES
    61   29   99 1    
    62   30   31 2    
    63   30   32 1    
    64   32   33 1    
    65   32   34 1    
    66   32  100 1    
    67   33  101 1    
    68   33  102 1    
    69   33  103 1    
    70   34   35 am   BACKBONE|DICT|INTERRES
    71   34  104 1    
    72   35   36 2    
    73   37   38 2    
    74   37   39 am   BACKBONE|DICT|INTERRES
    75   39   40 1    
    76   39  105 1    
    77   40   41 1    
    78   40   42 1    
    79   40  106 1    
    80   41  107 1    
    81   41  108 1    
    82   41  109 1    
    83   42   43 2    
    84   42   44 am   BACKBONE|DICT|INTERRES
    85   44   45 1    
    86   44  110 1    
    87   45   46 1    
    88   45   47 1    
    89   45  111 1    
    90   46  112 1    
    91   46  113 1    
    92   46  114 1    
    93   47   48 2    
    94   47   49 am   BACKBONE|DICT|INTERRES
    95   49   50 1    
    96   49  115 1    
    97   50   51 1    
    98   50   52 1    
    99   50  116 1    
   100   51  117 1    
   101   51  118 1    
   102   51  119 1    
   103   52   53 2    
   104   52   54 am   BACKBONE|DICT|INTERRES
   105   54   55 1    
   106   54  120 1    
   107   55   56 1    
   108   55   57 1    
   109   55  121 1    
   110   56  122 1    
   111   56  123 1    
   112   56  124 1    
   113   57   58 2    
   114   57   59 am   BACKBONE|DICT|INTERRES
   115   59   60 1    
   116   59  125 1    
   117   60   61 1    
   118   60   62 1    
   119   60  126 1    
   120   61  127 1    
   121   61  128 1    
   122   61  129 1    
   123   62   63 2    
   124   62   64 am   BACKBONE|DICT|INTERRES
   125   64   65 1    
   126   64  130 1    
   127   65   66 1    
   128   65   69 1    
   129   65  131 1    
   130   66   67 am   BACKBONE|DICT|INTERRES
   131   66   68 2    
   132   67  132 1    
   133   67  133 1    
   134   69   70 1    
   135   69  134 1    
   136   69  135 1    
   137   70   71 1    
   138   71  136 1    
   139   71  137 1    
@<TRIPOS>SUBSTRUCTURE
     1 UNK         1 GROUP             0       ****    0 ROOT    
