@<TRIPOS>MOLECULE
3R136
137   139    1
SMALL
USER_CHARGES


@<TRIPOS>ATOM
      1 CA         28.1655   17.2054    0.2115 C.3       0 UNK        -0.1979 
      2 C          28.4759   18.5500   -0.4301 C.2       0 UNK         0.4864 
      3 O          28.5186   18.6455   -1.6581 O.2       0 UNK        -0.5359 
      4 N          28.7002   19.5850    0.3901 N.am      1 UNK        -0.4318 
      5 CA         28.9421   20.9626   -0.0514 C.3       1 UNK         0.0824 
      6 C6         29.6456   21.7918    1.0546 C.3       12 UNK        -0.0944 
      7 S7         30.6997   23.1194    0.3696 S.3       12 UNK        -0.2672 
      8 C8         32.2124   22.9986    1.3848 C.3       12 UNK         0.0333 
      9 C9         32.1014   23.7737    2.6939 C.ar      12 UNK        -0.0807 
     10 C10        32.9539   24.8524    2.9564 C.ar      12 UNK        -0.0894 
     11 C11        32.8672   25.5508    4.1665 C.ar      12 UNK        -0.0804 
     12 C12        31.9046   25.1772    5.1102 C.ar      12 UNK        -0.0824 
     13 C13        31.0447   24.1050    4.8570 C.ar      12 UNK        -0.0762 
     14 C14        31.1641   23.3977    3.6594 C.ar      12 UNK        -0.0782 
     15 C15        29.9859   23.6940    5.8713 C.3       12 UNK         0.0230 
     16 S16        28.6467   24.9197    6.0397 S.3       12 UNK        -0.2608 
     17 C17        28.1381   25.2516    4.3132 C.3       12 UNK        -0.0989 
     18 CA         28.5553   26.6764    3.8624 C.3       5 UNK         0.0716 
     19 N          28.6783   26.7830    2.4037 N.am      5 UNK        -0.4135 
     20 C          29.2755   27.8094    1.7777 C.2       4 UNK         0.5031 
     21 O          29.8106   28.7498    2.3633 O.2       4 UNK        -0.5229 
     22 CA         29.2177   27.8313    0.2386 C.3       4 UNK         0.0329 
     23 CB         30.3696   27.0082   -0.3529 C.3       4 UNK        -0.2001 
     24 N          27.9564   27.3442   -0.3228 N.am      4 UNK        -0.4303 
     25 C          26.7273   27.7718   -0.0043 C.2       3 UNK         0.5044 
     26 O          26.5181   28.7005    0.7748 O.2       3 UNK        -0.5152 
     27 CA         25.5237   27.0285   -0.6193 C.3       3 UNK         0.0319 
     28 CB         24.7372   27.9640   -1.5519 C.3       3 UNK        -0.2001 
     29 N          25.8524   25.7948   -1.3473 N.am      3 UNK        -0.4354 
     30 C          26.4118   24.6914   -0.8285 C.2       2 UNK         0.4964 
     31 O          26.7352   24.5942    0.3583 O.2       2 UNK        -0.5047 
     32 CA         26.6811   23.5325   -1.8121 C.3       2 UNK         0.0288 
     33 CB         27.0340   24.0190   -3.2336 C.3       2 UNK        -0.2113 
     34 N          27.7712   22.6818   -1.3344 N.am      2 UNK        -0.4145 
     35 C          27.6304   21.6356   -0.5127 C.2       1 UNK         0.5006 
     36 O          26.5400   21.2199   -0.1071 O.2       1 UNK        -0.5103 
     37 C          27.6166   27.7543    4.4542 C.2       5 UNK         0.5055 
     38 O          27.8811   28.2525    5.5491 O.2       5 UNK        -0.5220 
     39 N          26.5451   28.1037    3.7251 N.am      6 UNK        -0.4450 
     40 CA         25.5947   29.1501    4.1107 C.3       6 UNK         0.0367 
     41 CB         24.2733   28.9684    3.3456 C.3       6 UNK        -0.1929 
     42 C          26.1713   30.5579    3.8910 C.2       6 UNK         0.5070 
     43 O          25.9088   31.4475    4.7008 O.2       6 UNK        -0.5237 
     44 N          26.9587   30.7304    2.8185 N.am      7 UNK        -0.4739 
     45 CA         27.7312   31.9440    2.5369 C.3       7 UNK         0.0276 
     46 CB         28.3316   31.8600    1.1241 C.3       7 UNK        -0.1927 
     47 C          28.8275   32.1891    3.5893 C.2       7 UNK         0.5013 
     48 O          28.9682   33.3195    4.0594 O.2       7 UNK        -0.5193 
     49 N          29.5370   31.1129    3.9619 N.am      8 UNK        -0.4253 
     50 CA         30.5667   31.0345    5.0009 C.3       8 UNK         0.0242 
     51 CB         29.9469   31.2860    6.3948 C.3       8 UNK        -0.2000 
     52 C          31.7946   31.9163    4.6954 C.2       8 UNK         0.4948 
     53 O          32.0758   32.1933    3.5254 O.2       8 UNK        -0.5275 
     54 N          32.5288   32.3078    5.7489 N.am      9 UNK        -0.4246 
     55 CA         33.7790   33.0752    5.7243 C.3       9 UNK         0.0261 
     56 CB         33.5262   34.5282    5.2585 C.3       9 UNK        -0.1959 
     57 C          34.8646   32.3333    4.9231 C.2       9 UNK         0.5033 
     58 O          35.4116   31.3508    5.4261 O.2       9 UNK        -0.5390 
     59 N          35.1390   32.7942    3.6965 N.am      10 UNK        -0.4215 
     60 CA         36.0427   32.1454    2.7450 C.3       10 UNK         0.0240 
     61 CB         36.4619   33.1699    1.6772 C.3       10 UNK        -0.1982 
     62 C          35.4397   30.8923    2.0799 C.2       10 UNK         0.4970 
     63 O          36.2039   30.0938    1.5362 O.2       10 UNK        -0.4916 
     64 N          34.1053   30.7482    2.1125 N.am      11 UNK        -0.4279 
     65 CA         33.3337   29.6577    1.4898 C.3       11 UNK         0.1003 
     66 C          33.4702   29.6153   -0.0631 C.2       11 UNK         0.5709 
     67 N          33.5783   30.7598   -0.7285 N.am      11 UNK        -0.7358 
     68 O          33.4765   28.5521   -0.6783 O.2       11 UNK        -0.4999 
     69 C69        33.5632   28.2782    2.1729 C.3       12 UNK        -0.0954 
     70 S70        33.1779   28.3021    3.9547 S.3       12 UNK        -0.2268 
     71 C71        33.8319   26.6878    4.4743 C.3       12 UNK         0.0203 
     72 H72        28.1756   17.2606    1.2999 H         1 UNK         0.0888 
     73 H73        27.1805   16.8596   -0.1010 H         1 UNK         0.0888 
     74 H74        28.9015   16.4634   -0.0968 H         1 UNK         0.0888 
     75 H75        28.6118   19.4524    1.3872 H         1 UNK         0.3017 
     76 H76        29.6076   20.9036   -0.9162 H         1 UNK         0.0873 
     77 H77        28.9256   22.2246    1.7527 H         1 UNK         0.0745 
     78 H78        30.2810   21.1339    1.6490 H         1 UNK         0.0745 
     79 H79        32.4503   21.9543    1.5910 H         1 UNK         0.0705 
     80 H80        33.0437   23.3829    0.7919 H         1 UNK         0.0705 
     81 H81        33.6957   25.1431    2.2253 H         1 UNK         0.1334 
     82 H82        31.8226   25.7203    6.0419 H         1 UNK         0.1417 
     83 H83        30.5139   22.5559    3.4788 H         1 UNK         0.1562 
     84 H84        30.4573   23.5512    6.8447 H         1 UNK         0.0748 
     85 H85        29.5455   22.7320    5.6045 H         1 UNK         0.0748 
     86 H86        27.0596   25.1060    4.2242 H         1 UNK         0.0940 
     87 H87        28.5825   24.4993    3.6611 H         1 UNK         0.0940 
     88 H88        29.5541   26.8742    4.2598 H         1 UNK         0.0703 
     89 H89        28.2525   26.0532    1.8478 H         1 UNK         0.3081 
     90 H90        29.3383   28.8687   -0.0786 H         1 UNK         0.0719 
     91 H91        30.2392   25.9429   -0.1665 H         1 UNK         0.0809 
     92 H92        30.4548   27.1552   -1.4296 H         1 UNK         0.0809 
     93 H93        31.3220   27.2952    0.0878 H         1 UNK         0.0809 
     94 H94        28.0229   26.5749   -0.9717 H         1 UNK         0.2990 
     95 H95        24.8719   26.7520    0.2119 H         1 UNK         0.0690 
     96 H96        23.8257   27.4893   -1.9157 H         1 UNK         0.0788 
     97 H97        25.3305   28.2633   -2.4169 H         1 UNK         0.0788 
     98 H98        24.4375   28.8754   -1.0319 H         1 UNK         0.0788 
     99 H99        25.6342   25.7926   -2.3336 H         1 UNK         0.2993 
    100 H100       25.7635   22.9429   -1.8722 H         1 UNK         0.0949 
    101 H101       27.2952   23.1809   -3.8806 H         1 UNK         0.0767 
    102 H102       26.1926   24.5248   -3.7084 H         1 UNK         0.0767 
    103 H103       27.8798   24.7082   -3.2299 H         1 UNK         0.0767 
    104 H104       28.7084   22.9880   -1.5549 H         1 UNK         0.3013 
    105 H105       26.4335   27.7143    2.7992 H         1 UNK         0.3121 
    106 H106       25.3806   29.0426    5.1765 H         1 UNK         0.0774 
    107 H107       24.4013   29.0909    2.2701 H         1 UNK         0.0815 
    108 H108       23.5366   29.7053    3.6681 H         1 UNK         0.0815 
    109 H109       23.8433   27.9827    3.5233 H         1 UNK         0.0815 
    110 H110       27.0459   29.9617    2.1597 H         1 UNK         0.2987 
    111 H111       27.0434   32.7919    2.5670 H         1 UNK         0.0949 
    112 H112       29.0472   31.0426    1.0361 H         1 UNK         0.0806 
    113 H113       27.5575   31.7102    0.3710 H         1 UNK         0.0806 
    114 H114       28.8589   32.7808    0.8719 H         1 UNK         0.0806 
    115 H115       29.4069   30.2543    3.4314 H         1 UNK         0.3010 
    116 H116       30.9200   30.0031    4.9784 H         1 UNK         0.0829 
    117 H117       29.6847   32.3348    6.5397 H         1 UNK         0.0813 
    118 H118       29.0386   30.6977    6.5295 H         1 UNK         0.0813 
    119 H119       30.6274   30.9972    7.1961 H         1 UNK         0.0813 
    120 H120       32.2328   31.9977    6.6637 H         1 UNK         0.3038 
    121 H121       34.1380   33.1208    6.7537 H         1 UNK         0.0769 
    122 H122       34.4524   35.1045    5.2465 H         1 UNK         0.0811 
    123 H123       33.0874   34.5816    4.2618 H         1 UNK         0.0811 
    124 H124       32.8441   35.0384    5.9388 H         1 UNK         0.0811 
    125 H125       34.6159   33.5907    3.3618 H         1 UNK         0.3204 
    126 H126       36.9392   31.8282    3.2824 H         1 UNK         0.0748 
    127 H127       37.1633   32.7294    0.9670 H         1 UNK         0.0771 
    128 H128       35.6063   33.5333    1.1065 H         1 UNK         0.0771 
    129 H129       36.9575   34.0311    2.1261 H         1 UNK         0.0771 
    130 H130       33.5404   31.4379    2.6014 H         1 UNK         0.2980 
    131 H131       32.2873   29.9150    1.6584 H         1 UNK         0.0545 
    132 H132       33.6689   30.7388   -1.7318 H         1 UNK         0.3459 
    133 H133       33.5724   31.6402   -0.2392 H         1 UNK         0.3459 
    134 H134       32.9295   27.5172    1.7181 H         1 UNK         0.0616 
    135 H135       34.5931   27.9474    2.0320 H         1 UNK         0.0616 
    136 H136       34.0248   26.7237    5.5475 H         1 UNK         0.0634 
    137 H137       34.7988   26.5095    4.0015 H         1 UNK         0.0634 
@<TRIPOS>BOND
     1    1    2 1    
     2    1   72 1    
     3    1   73 1    
     4    1   74 1    
     5    2    3 2    
     6    2    4 am   BACKBONE|DICT|INTERRES
     7    4    5 1    
     8    4   75 1    
     9    5    6 1    
    10    5   35 1    
    11    5   76 1    
    12    6    7 1    
    13    6   77 1    
    14    6   78 1    
    15    7    8 1    
    16    8    9 1    
    17    8   79 1    
    18    8   80 1    
    19    9   10 ar   
    20    9   14 ar   
    21   10   11 ar   
    22   10   81 1    
    23   11   12 ar   
    24   11   71 1    
    25   12   13 ar   
    26   12   82 1    
    27   13   14 ar   
    28   13   15 1    
    29   14   83 1    
    30   15   16 1    
    31   15   84 1    
    32   15   85 1    
    33   16   17 1    
    34   17   18 1    
    35   17   86 1    
    36   17   87 1    
    37   18   19 1    
    38   18   37 1    
    39   18   88 1    
    40   19   20 am   BACKBONE|DICT|INTERRES
    41   19   89 1    
    42   20   21 2    
    43   20   22 1    
    44   22   23 1    
    45   22   24 1    
    46   22   90 1    
    47   23   91 1    
    48   23   92 1    
    49   23   93 1    
    50   24   25 am   BACKBONE|DICT|INTERRES
    51   24   94 1    
    52   25   26 2    
    53   25   27 1    
    54   27   28 1    
    55   27   29 1    
    56   27   95 1    
    57   28   96 1    
    58   28   97 1    
    59   28   98 1    
    60   29   30 am   BACKBONE|DICT|INTERRES
    61   29   99 1    
    62   30   31 2    
    63   30   32 1    
    64   32   33 1    
    65   32   34 1    
    66   32  100 1    
    67   33  101 1    
    68   33  102 1    
    69   33  103 1    
    70   34   35 am   BACKBONE|DICT|INTERRES
    71   34  104 1    
    72   35   36 2    
    73   37   38 2    
    74   37   39 am   BACKBONE|DICT|INTERRES
    75   39   40 1    
    76   39  105 1    
    77   40   41 1    
    78   40   42 1    
    79   40  106 1    
    80   41  107 1    
    81   41  108 1    
    82   41  109 1    
    83   42   43 2    
    84   42   44 am   BACKBONE|DICT|INTERRES
    85   44   45 1    
    86   44  110 1    
    87   45   46 1    
    88   45   47 1    
    89   45  111 1    
    90   46  112 1    
    91   46  113 1    
    92   46  114 1    
    93   47   48 2    
    94   47   49 am   BACKBONE|DICT|INTERRES
    95   49   50 1    
    96   49  115 1    
    97   50   51 1    
    98   50   52 1    
    99   50  116 1    
   100   51  117 1    
   101   51  118 1    
   102   51  119 1    
   103   52   53 2    
   104   52   54 am   BACKBONE|DICT|INTERRES
   105   54   55 1    
   106   54  120 1    
   107   55   56 1    
   108   55   57 1    
   109   55  121 1    
   110   56  122 1    
   111   56  123 1    
   112   56  124 1    
   113   57   58 2    
   114   57   59 am   BACKBONE|DICT|INTERRES
   115   59   60 1    
   116   59  125 1    
   117   60   61 1    
   118   60   62 1    
   119   60  126 1    
   120   61  127 1    
   121   61  128 1    
   122   61  129 1    
   123   62   63 2    
   124   62   64 am   BACKBONE|DICT|INTERRES
   125   64   65 1    
   126   64  130 1    
   127   65   66 1    
   128   65   69 1    
   129   65  131 1    
   130   66   67 am   BACKBONE|DICT|INTERRES
   131   66   68 2    
   132   67  132 1    
   133   67  133 1    
   134   69   70 1    
   135   69  134 1    
   136   69  135 1    
   137   70   71 1    
   138   71  136 1    
   139   71  137 1    
@<TRIPOS>SUBSTRUCTURE
     1 UNK         1 GROUP             0       ****    0 ROOT    
