@<TRIPOS>MOLECULE
3R136
137   139    1
SMALL
USER_CHARGES


@<TRIPOS>ATOM
      1 CA         33.5504   19.7098   -0.6795 C.3       0 UNK        -0.1979 
      2 C          33.1410   20.9617    0.0829 C.2       0 UNK         0.4864 
      3 O          33.9900   21.8075    0.3694 O.2       0 UNK        -0.5359 
      4 N          31.8498   21.0816    0.4195 N.am      1 UNK        -0.4318 
      5 CA         31.2666   22.2480    1.0903 C.3       1 UNK         0.0824 
      6 C6         29.9148   21.8878    1.7646 C.3       12 UNK        -0.0944 
      7 S7         29.6329   22.8476    3.2884 S.3       12 UNK        -0.2672 
      8 C8         28.3343   24.0106    2.7547 C.3       12 UNK         0.0333 
      9 C9         28.1505   25.1684    3.7294 C.ar      12 UNK        -0.0807 
     10 C10        29.2529   25.8931    4.2018 C.ar      12 UNK        -0.0894 
     11 C11        29.0766   26.9754    5.0677 C.ar      12 UNK        -0.0804 
     12 C12        27.7857   27.3470    5.4472 C.ar      12 UNK        -0.0824 
     13 C13        26.6752   26.6535    4.9594 C.ar      12 UNK        -0.0762 
     14 C14        26.8628   25.5522    4.1183 C.ar      12 UNK        -0.0782 
     15 C15        25.2767   27.1327    5.3124 C.3       12 UNK         0.0230 
     16 S16        24.8854   28.6863    4.4433 S.3       12 UNK        -0.2608 
     17 C17        24.4517   28.1074    2.7657 C.3       12 UNK        -0.0989 
     18 CA         25.6532   27.9966    1.7809 C.3       5 UNK         0.0716 
     19 N          25.3563   27.1079    0.6540 N.am      5 UNK        -0.4135 
     20 C          24.4162   27.2952   -0.2823 C.2       4 UNK         0.5031 
     21 O          23.6918   28.2905   -0.3391 O.2       4 UNK        -0.5229 
     22 CA         24.2640   26.1748   -1.3313 C.3       4 UNK         0.0329 
     23 CB         23.1676   26.4758   -2.3711 C.3       4 UNK        -0.2001 
     24 N          25.5235   25.9267   -2.0325 N.am      4 UNK        -0.4303 
     25 C          26.5406   25.1908   -1.5679 C.2       3 UNK         0.5044 
     26 O          26.4939   24.5711   -0.5021 O.2       3 UNK        -0.5152 
     27 CA         27.8297   25.1640   -2.4170 C.3       3 UNK         0.0319 
     28 CB         27.9031   26.2926   -3.4719 C.3       3 UNK        -0.2001 
     29 N          29.0531   25.1791   -1.6075 N.am      3 UNK        -0.4354 
     30 C          29.3869   26.0449   -0.6405 C.2       2 UNK         0.4964 
     31 O          28.6336   26.9202   -0.2080 O.2       2 UNK        -0.5047 
     32 CA         30.8135   25.9055   -0.0715 C.3       2 UNK         0.0288 
     33 CB         31.1860   27.0858    0.8404 C.3       2 UNK        -0.2113 
     34 N          31.0243   24.6518    0.6583 N.am      2 UNK        -0.4145 
     35 C          31.1191   23.4329    0.1103 C.2       1 UNK         0.5006 
     36 O          31.0594   23.2275   -1.1066 O.2       1 UNK        -0.5103 
     37 C          26.2405   29.3484    1.3150 C.2       5 UNK         0.5055 
     38 O          25.7576   30.4139    1.7054 O.2       5 UNK        -0.5220 
     39 N          27.3134   29.2885    0.5122 N.am      6 UNK        -0.4450 
     40 CA         28.1624   30.4322    0.1659 C.3       6 UNK         0.0367 
     41 CB         28.8278   30.1773   -1.1992 C.3       6 UNK        -0.1929 
     42 C          29.1860   30.6542    1.2952 C.2       6 UNK         0.5070 
     43 O          30.3869   30.4653    1.0997 O.2       6 UNK        -0.5237 
     44 N          28.6715   31.0090    2.4802 N.am      7 UNK        -0.4739 
     45 CA         29.3444   30.9443    3.7832 C.3       7 UNK         0.0276 
     46 CB         28.3072   31.2149    4.8864 C.3       7 UNK        -0.1927 
     47 C          30.6027   31.8130    3.9769 C.2       7 UNK         0.5013 
     48 O          31.2528   31.6946    5.0164 O.2       7 UNK        -0.5193 
     49 N          30.9410   32.6515    2.9896 N.am      8 UNK        -0.4253 
     50 CA         32.2228   33.3532    2.9000 C.3       8 UNK         0.0242 
     51 CB         32.1281   34.4374    1.8142 C.3       8 UNK        -0.2000 
     52 C          33.4064   32.4056    2.6150 C.2       8 UNK         0.4948 
     53 O          34.5384   32.7481    2.9601 O.2       8 UNK        -0.5275 
     54 N          33.1339   31.2478    1.9976 N.am      9 UNK        -0.4246 
     55 CA         34.0977   30.1802    1.7359 C.3       9 UNK         0.0261 
     56 CB         33.9353   29.7301    0.2739 C.3       9 UNK        -0.1959 
     57 C          33.8589   29.0051    2.6976 C.2       9 UNK         0.5033 
     58 O          32.8039   28.9291    3.3300 O.2       9 UNK        -0.5390 
     59 N          34.8446   28.0989    2.7746 N.am      10 UNK        -0.4215 
     60 CA         34.8985   26.8477    3.5510 C.3       10 UNK         0.0240 
     61 CB         33.8040   25.8509    3.1174 C.3       10 UNK        -0.1982 
     62 C          34.9005   27.0248    5.0798 C.2       10 UNK         0.4970 
     63 O          35.7907   26.4892    5.7412 O.2       10 UNK        -0.4916 
     64 N          33.9157   27.7539    5.6129 N.am      11 UNK        -0.4279 
     65 CA         33.7450   28.0155    7.0512 C.3       11 UNK         0.1003 
     66 C          34.7148   29.0885    7.6284 C.2       11 UNK         0.5709 
     67 N          35.4656   29.8208    6.8136 N.am      11 UNK        -0.7358 
     68 O          34.7968   29.2504    8.8438 O.2       11 UNK        -0.4999 
     69 C69        32.2724   28.3461    7.4089 C.3       12 UNK        -0.0954 
     70 S70        31.1023   27.0135    6.9689 S.3       12 UNK        -0.2268 
     71 C71        30.2715   27.7806    5.5500 C.3       12 UNK         0.0203 
     72 H72        32.7061   19.0423   -0.8513 H         1 UNK         0.0888 
     73 H73        33.9701   19.9814   -1.6477 H         1 UNK         0.0888 
     74 H74        34.3080   19.1609   -0.1208 H         1 UNK         0.0888 
     75 H75        31.1950   20.3714    0.1249 H         1 UNK         0.3017 
     76 H76        31.9759   22.5488    1.8654 H         1 UNK         0.0873 
     77 H77        29.9154   20.8400    2.0702 H         1 UNK         0.0745 
     78 H78        29.0707   21.9896    1.0786 H         1 UNK         0.0745 
     79 H79        28.5693   24.4206    1.7735 H         1 UNK         0.0705 
     80 H80        27.4037   23.4534    2.6352 H         1 UNK         0.0705 
     81 H81        30.2527   25.6185    3.8965 H         1 UNK         0.1334 
     82 H82        27.6397   28.1993    6.0969 H         1 UNK         0.1417 
     83 H83        26.0032   25.0170    3.7378 H         1 UNK         0.1562 
     84 H84        25.2192   27.3069    6.3879 H         1 UNK         0.0748 
     85 H85        24.5257   26.3746    5.0854 H         1 UNK         0.0748 
     86 H86        23.6888   28.7751    2.3612 H         1 UNK         0.0940 
     87 H87        23.9620   27.1375    2.8644 H         1 UNK         0.0940 
     88 H88        26.4720   27.5097    2.3077 H         1 UNK         0.0703 
     89 H89        25.9304   26.2747    0.5752 H         1 UNK         0.3081 
     90 H90        23.9702   25.2697   -0.7950 H         1 UNK         0.0719 
     91 H91        22.2012   26.6257   -1.8878 H         1 UNK         0.0809 
     92 H92        23.3891   27.3770   -2.9443 H         1 UNK         0.0809 
     93 H93        23.0503   25.6509   -3.0741 H         1 UNK         0.0809 
     94 H94        25.6599   26.4299   -2.8973 H         1 UNK         0.2990 
     95 H95        27.8247   24.2097   -2.9452 H         1 UNK         0.0690 
     96 H96        28.8400   26.2471   -4.0276 H         1 UNK         0.0788 
     97 H97        27.8431   27.2813   -3.0138 H         1 UNK         0.0788 
     98 H98        27.1019   26.2111   -4.2074 H         1 UNK         0.0788 
     99 H99        29.7212   24.4375   -1.7999 H         1 UNK         0.2993 
    100 H100       31.4957   25.9245   -0.9243 H         1 UNK         0.0949 
    101 H101       30.9995   28.0344    0.3385 H         1 UNK         0.0767 
    102 H102       30.6102   27.0934    1.7664 H         1 UNK         0.0767 
    103 H103       32.2435   27.0700    1.0933 H         1 UNK         0.0767 
    104 H104       31.0457   24.7226    1.6647 H         1 UNK         0.3013 
    105 H105       27.6922   28.3737    0.2629 H         1 UNK         0.3121 
    106 H106       27.5531   31.3341    0.0785 H         1 UNK         0.0774 
    107 H107       29.4722   29.2982   -1.1806 H         1 UNK         0.0815 
    108 H108       28.0831   30.0284   -1.9810 H         1 UNK         0.0815 
    109 H109       29.4457   31.0260   -1.4944 H         1 UNK         0.0815 
    110 H110       27.6669   31.1420    2.5113 H         1 UNK         0.2987 
    111 H111       29.6883   29.9149    3.8802 H         1 UNK         0.0949 
    112 H112       27.4757   30.5119    4.8306 H         1 UNK         0.0806 
    113 H113       28.7478   31.1113    5.8790 H         1 UNK         0.0806 
    114 H114       27.8999   32.2239    4.8139 H         1 UNK         0.0806 
    115 H115       30.3545   32.6603    2.1677 H         1 UNK         0.3010 
    116 H116       32.4138   33.8404    3.8587 H         1 UNK         0.0829 
    117 H117       31.9280   34.0083    0.8315 H         1 UNK         0.0813 
    118 H118       33.0613   34.9979    1.7411 H         1 UNK         0.0813 
    119 H119       31.3378   35.1547    2.0364 H         1 UNK         0.0813 
    120 H120       32.1639   31.0109    1.8026 H         1 UNK         0.3038 
    121 H121       35.1183   30.5401    1.8817 H         1 UNK         0.0769 
    122 H122       34.1629   30.5445   -0.4140 H         1 UNK         0.0811 
    123 H123       32.9179   29.3989    0.0658 H         1 UNK         0.0811 
    124 H124       34.6058   28.9052    0.0301 H         1 UNK         0.0811 
    125 H125       35.6768   28.2829    2.2306 H         1 UNK         0.3204 
    126 H126       35.8579   26.3942    3.2962 H         1 UNK         0.0748 
    127 H127       32.8019   26.2304    3.3189 H         1 UNK         0.0771 
    128 H128       33.8759   25.6221    2.0542 H         1 UNK         0.0771 
    129 H129       33.9030   24.9069    3.6550 H         1 UNK         0.0771 
    130 H130       33.2567   28.1962    4.9762 H         1 UNK         0.2980 
    131 H131       33.9960   27.0920    7.5765 H         1 UNK         0.0545 
    132 H132       35.4049   29.6978    5.8165 H         1 UNK         0.3459 
    133 H133       36.0923   30.5071    7.2032 H         1 UNK         0.3459 
    134 H134       31.9709   29.2817    6.9338 H         1 UNK         0.0616 
    135 H135       32.1712   28.5108    8.4832 H         1 UNK         0.0616 
    136 H136       29.9529   28.7826    5.8381 H         1 UNK         0.0634 
    137 H137       30.9835   27.8974    4.7351 H         1 UNK         0.0634 
@<TRIPOS>BOND
     1    1    2 1    
     2    1   72 1    
     3    1   73 1    
     4    1   74 1    
     5    2    3 2    
     6    2    4 am   BACKBONE|DICT|INTERRES
     7    4    5 1    
     8    4   75 1    
     9    5    6 1    
    10    5   35 1    
    11    5   76 1    
    12    6    7 1    
    13    6   77 1    
    14    6   78 1    
    15    7    8 1    
    16    8    9 1    
    17    8   79 1    
    18    8   80 1    
    19    9   10 ar   
    20    9   14 ar   
    21   10   11 ar   
    22   10   81 1    
    23   11   12 ar   
    24   11   71 1    
    25   12   13 ar   
    26   12   82 1    
    27   13   14 ar   
    28   13   15 1    
    29   14   83 1    
    30   15   16 1    
    31   15   84 1    
    32   15   85 1    
    33   16   17 1    
    34   17   18 1    
    35   17   86 1    
    36   17   87 1    
    37   18   19 1    
    38   18   37 1    
    39   18   88 1    
    40   19   20 am   BACKBONE|DICT|INTERRES
    41   19   89 1    
    42   20   21 2    
    43   20   22 1    
    44   22   23 1    
    45   22   24 1    
    46   22   90 1    
    47   23   91 1    
    48   23   92 1    
    49   23   93 1    
    50   24   25 am   BACKBONE|DICT|INTERRES
    51   24   94 1    
    52   25   26 2    
    53   25   27 1    
    54   27   28 1    
    55   27   29 1    
    56   27   95 1    
    57   28   96 1    
    58   28   97 1    
    59   28   98 1    
    60   29   30 am   BACKBONE|DICT|INTERRES
    61   29   99 1    
    62   30   31 2    
    63   30   32 1    
    64   32   33 1    
    65   32   34 1    
    66   32  100 1    
    67   33  101 1    
    68   33  102 1    
    69   33  103 1    
    70   34   35 am   BACKBONE|DICT|INTERRES
    71   34  104 1    
    72   35   36 2    
    73   37   38 2    
    74   37   39 am   BACKBONE|DICT|INTERRES
    75   39   40 1    
    76   39  105 1    
    77   40   41 1    
    78   40   42 1    
    79   40  106 1    
    80   41  107 1    
    81   41  108 1    
    82   41  109 1    
    83   42   43 2    
    84   42   44 am   BACKBONE|DICT|INTERRES
    85   44   45 1    
    86   44  110 1    
    87   45   46 1    
    88   45   47 1    
    89   45  111 1    
    90   46  112 1    
    91   46  113 1    
    92   46  114 1    
    93   47   48 2    
    94   47   49 am   BACKBONE|DICT|INTERRES
    95   49   50 1    
    96   49  115 1    
    97   50   51 1    
    98   50   52 1    
    99   50  116 1    
   100   51  117 1    
   101   51  118 1    
   102   51  119 1    
   103   52   53 2    
   104   52   54 am   BACKBONE|DICT|INTERRES
   105   54   55 1    
   106   54  120 1    
   107   55   56 1    
   108   55   57 1    
   109   55  121 1    
   110   56  122 1    
   111   56  123 1    
   112   56  124 1    
   113   57   58 2    
   114   57   59 am   BACKBONE|DICT|INTERRES
   115   59   60 1    
   116   59  125 1    
   117   60   61 1    
   118   60   62 1    
   119   60  126 1    
   120   61  127 1    
   121   61  128 1    
   122   61  129 1    
   123   62   63 2    
   124   62   64 am   BACKBONE|DICT|INTERRES
   125   64   65 1    
   126   64  130 1    
   127   65   66 1    
   128   65   69 1    
   129   65  131 1    
   130   66   67 am   BACKBONE|DICT|INTERRES
   131   66   68 2    
   132   67  132 1    
   133   67  133 1    
   134   69   70 1    
   135   69  134 1    
   136   69  135 1    
   137   70   71 1    
   138   71  136 1    
   139   71  137 1    
@<TRIPOS>SUBSTRUCTURE
     1 UNK         1 GROUP             0       ****    0 ROOT    
