@<TRIPOS>MOLECULE
3R136
137   139    1
SMALL
USER_CHARGES


@<TRIPOS>ATOM
      1 CA         28.9172   21.0134   -1.4469 C.3       0 UNK        -0.1979 
      2 C          28.3679   21.5154   -0.1195 C.2       0 UNK         0.4864 
      3 O          27.5264   20.8479    0.4840 O.2       0 UNK        -0.5359 
      4 N          28.8480   22.6822    0.3309 N.am      1 UNK        -0.4318 
      5 CA         28.4126   23.4087    1.5293 C.3       1 UNK         0.0824 
      6 C6         28.5833   22.5909    2.8443 C.3       12 UNK        -0.0944 
      7 S7         29.0413   23.6261    4.2823 S.3       12 UNK        -0.2672 
      8 C8         30.7942   23.1917    4.5623 C.3       12 UNK         0.0333 
      9 C9         31.7499   24.0626    3.7540 C.ar      12 UNK        -0.0807 
     10 C10        32.6011   24.9733    4.3914 C.ar      12 UNK        -0.0894 
     11 C11        33.4967   25.7560    3.6509 C.ar      12 UNK        -0.0804 
     12 C12        33.5120   25.6392    2.2573 C.ar      12 UNK        -0.0824 
     13 C13        32.6583   24.7441    1.6082 C.ar      12 UNK        -0.0762 
     14 C14        31.8080   23.9363    2.3653 C.ar      12 UNK        -0.0782 
     15 C15        32.6631   24.6275    0.0917 C.3       12 UNK         0.0230 
     16 S16        31.0482   25.0689   -0.6268 S.3       12 UNK        -0.2608 
     17 C17        31.0597   26.8964   -0.5140 C.3       12 UNK        -0.0989 
     18 CA         29.6794   27.5746   -0.2608 C.3       5 UNK         0.0716 
     19 N          28.5567   26.9268   -0.9297 N.am      5 UNK        -0.4135 
     20 C          28.3329   26.8889   -2.2451 C.2       4 UNK         0.5031 
     21 O          29.0453   27.4424   -3.0837 O.2       4 UNK        -0.5229 
     22 CA         27.1008   26.0928   -2.7054 C.3       4 UNK         0.0329 
     23 CB         27.4725   24.6197   -2.9435 C.3       4 UNK        -0.2001 
     24 N          25.9848   26.1747   -1.7558 N.am      4 UNK        -0.4303 
     25 C          25.1830   27.2457   -1.6435 C.2       3 UNK         0.5044 
     26 O          25.3166   28.2663   -2.3200 O.2       3 UNK        -0.5152 
     27 CA         24.0207   27.1791   -0.6355 C.3       3 UNK         0.0319 
     28 CB         22.7114   26.8140   -1.3539 C.3       3 UNK        -0.2001 
     29 N          24.2414   26.2342    0.4593 N.am      3 UNK        -0.4354 
     30 C          25.0617   26.4446    1.4968 C.2       2 UNK         0.4964 
     31 O          25.7076   27.4802    1.6563 O.2       2 UNK        -0.5047 
     32 CA         25.1876   25.3089    2.5325 C.3       2 UNK         0.0288 
     33 CB         24.0285   24.2862    2.4896 C.3       2 UNK        -0.2113 
     34 N          26.4770   24.6168    2.4355 N.am      2 UNK        -0.4145 
     35 C          27.0096   24.0366    1.3503 C.2       1 UNK         0.5006 
     36 O          26.4565   24.0238    0.2453 O.2       1 UNK        -0.5103 
     37 C          29.2883   27.6795    1.2203 C.2       5 UNK         0.5055 
     38 O          28.8406   26.6900    1.7982 O.2       5 UNK        -0.5220 
     39 N          29.3874   28.8840    1.7892 N.am      6 UNK        -0.4450 
     40 CA         28.8911   29.1961    3.1274 C.3       6 UNK         0.0367 
     41 CB         28.3621   30.6389    3.1487 C.3       6 UNK        -0.1929 
     42 C          30.0090   28.9988    4.1547 C.2       6 UNK         0.5070 
     43 O          31.0011   29.7276    4.1113 O.2       6 UNK        -0.5237 
     44 N          29.8226   28.0287    5.0589 N.am      7 UNK        -0.4739 
     45 CA         30.7726   27.6625    6.1113 C.3       7 UNK         0.0276 
     46 CB         30.2131   26.4810    6.9192 C.3       7 UNK        -0.1927 
     47 C          31.1166   28.8386    7.0395 C.2       7 UNK         0.5013 
     48 O          30.2073   29.4662    7.5868 O.2       7 UNK        -0.5193 
     49 N          32.4234   29.1025    7.1830 N.am      8 UNK        -0.4253 
     50 CA         33.0349   30.2026    7.9405 C.3       8 UNK         0.0242 
     51 CB         32.7487   30.0619    9.4515 C.3       8 UNK        -0.2000 
     52 C          32.6911   31.6067    7.3973 C.2       8 UNK         0.4948 
     53 O          32.8114   32.5867    8.1355 O.2       8 UNK        -0.5275 
     54 N          32.2923   31.6901    6.1226 N.am      9 UNK        -0.4246 
     55 CA         31.9682   32.9228    5.4153 C.3       9 UNK         0.0261 
     56 CB         30.4553   33.2057    5.5360 C.3       9 UNK        -0.1959 
     57 C          32.4899   32.7803    3.9796 C.2       9 UNK         0.5033 
     58 O          33.6988   32.6175    3.7953 O.2       9 UNK        -0.5390 
     59 N          31.5928   32.8257    2.9870 N.am      10 UNK        -0.4215 
     60 CA         31.8802   32.6225    1.5658 C.3       10 UNK         0.0240 
     61 CB         30.7213   33.2032    0.7329 C.3       10 UNK        -0.1982 
     62 C          32.1612   31.1418    1.2368 C.2       10 UNK         0.4970 
     63 O          31.3805   30.5100    0.5213 O.2       10 UNK        -0.4916 
     64 N          33.2691   30.6184    1.7729 N.am      11 UNK        -0.4279 
     65 CA         33.7884   29.2665    1.5155 C.3       11 UNK         0.1003 
     66 C          34.3322   29.0513    0.0715 C.2       11 UNK         0.5709 
     67 N          34.5828   30.0922   -0.7142 N.am      11 UNK        -0.7358 
     68 O          34.5225   27.9124   -0.3455 O.2       11 UNK        -0.4999 
     69 C69        34.8485   28.8593    2.5745 C.3       12 UNK        -0.0954 
     70 S70        34.0998   28.4471    4.1871 S.3       12 UNK        -0.2268 
     71 C71        34.4888   26.6728    4.3620 C.3       12 UNK         0.0203 
     72 H72        29.6700   21.6863   -1.8578 H         1 UNK         0.0888 
     73 H73        29.3733   20.0322   -1.3182 H         1 UNK         0.0888 
     74 H74        28.1111   20.9232   -2.1746 H         1 UNK         0.0888 
     75 H75        29.5165   23.1859   -0.2375 H         1 UNK         0.3017 
     76 H76        29.0976   24.2520    1.5762 H         1 UNK         0.0873 
     77 H77        29.3520   21.8282    2.7156 H         1 UNK         0.0745 
     78 H78        27.6740   22.0351    3.0816 H         1 UNK         0.0745 
     79 H79        30.9674   22.1394    4.3338 H         1 UNK         0.0705 
     80 H80        31.0013   23.3009    5.6278 H         1 UNK         0.0705 
     81 H81        32.5848   25.0528    5.4695 H         1 UNK         0.1334 
     82 H82        34.2005   26.2305    1.6734 H         1 UNK         0.1417 
     83 H83        31.1797   23.2155    1.8651 H         1 UNK         0.1562 
     84 H84        32.9014   23.5990   -0.1827 H         1 UNK         0.0748 
     85 H85        33.4396   25.2525   -0.3528 H         1 UNK         0.0748 
     86 H86        31.4652   27.2667   -1.4567 H         1 UNK         0.0940 
     87 H87        31.7772   27.2052    0.2449 H         1 UNK         0.0940 
     88 H88        29.7357   28.5931   -0.6517 H         1 UNK         0.0703 
     89 H89        27.9144   26.4619   -0.3016 H         1 UNK         0.3081 
     90 H90        26.7733   26.5119   -3.6594 H         1 UNK         0.0719 
     91 H91        26.6172   24.0452   -3.2992 H         1 UNK         0.0809 
     92 H92        28.2574   24.5342   -3.6961 H         1 UNK         0.0809 
     93 H93        27.8429   24.1436   -2.0359 H         1 UNK         0.0809 
     94 H94        25.8500   25.3820   -1.1347 H         1 UNK         0.2990 
     95 H95        23.9040   28.1771   -0.2070 H         1 UNK         0.0690 
     96 H96        22.4977   27.5193   -2.1585 H         1 UNK         0.0788 
     97 H97        21.8626   26.8394   -0.6702 H         1 UNK         0.0788 
     98 H98        22.7575   25.8185   -1.7974 H         1 UNK         0.0788 
     99 H99        23.7696   25.3433    0.3981 H         1 UNK         0.2993 
    100 H100       25.1662   25.7909    3.5112 H         1 UNK         0.0949 
    101 H101       24.0233   23.6999    1.5700 H         1 UNK         0.0767 
    102 H102       24.1013   23.5845    3.3207 H         1 UNK         0.0767 
    103 H103       23.0604   24.7818    2.5768 H         1 UNK         0.0767 
    104 H104       27.0481   24.6308    3.2712 H         1 UNK         0.3013 
    105 H105       29.8916   29.6193    1.3002 H         1 UNK         0.3121 
    106 H106       28.0542   28.5377    3.3733 H         1 UNK         0.0774 
    107 H107       29.1356   31.3560    2.8797 H         1 UNK         0.0815 
    108 H108       27.9964   30.9047    4.1413 H         1 UNK         0.0815 
    109 H109       27.5325   30.7643    2.4527 H         1 UNK         0.0815 
    110 H110       28.9735   27.4849    5.0136 H         1 UNK         0.2987 
    111 H111       31.6834   27.3351    5.6099 H         1 UNK         0.0949 
    112 H112       29.2794   26.7411    7.4195 H         1 UNK         0.0806 
    113 H113       30.0229   25.6187    6.2822 H         1 UNK         0.0806 
    114 H114       30.9186   26.1648    7.6887 H         1 UNK         0.0806 
    115 H115       33.0755   28.5411    6.6517 H         1 UNK         0.3010 
    116 H116       34.1116   30.0934    7.8025 H         1 UNK         0.0829 
    117 H117       33.0097   29.0680    9.8148 H         1 UNK         0.0813 
    118 H118       33.3328   30.7791   10.0295 H         1 UNK         0.0813 
    119 H119       31.6982   30.2397    9.6834 H         1 UNK         0.0813 
    120 H120       32.2156   30.8428    5.5682 H         1 UNK         0.3038 
    121 H121       32.5136   33.7597    5.8567 H         1 UNK         0.0769 
    122 H122       29.8546   32.3785    5.1569 H         1 UNK         0.0811 
    123 H123       30.1719   34.1118    4.9989 H         1 UNK         0.0811 
    124 H124       30.1737   33.3565    6.5784 H         1 UNK         0.0811 
    125 H125       30.6224   32.9378    3.2377 H         1 UNK         0.3204 
    126 H126       32.7809   33.1858    1.3125 H         1 UNK         0.0748 
    127 H127       30.5828   34.2660    0.9324 H         1 UNK         0.0771 
    128 H128       30.9201   33.1004   -0.3349 H         1 UNK         0.0771 
    129 H129       29.7769   32.6977    0.9366 H         1 UNK         0.0771 
    130 H130       33.7960   31.1942    2.4216 H         1 UNK         0.2980 
    131 H131       32.9440   28.5839    1.6167 H         1 UNK         0.0545 
    132 H132       34.4384   31.0322   -0.3840 H         1 UNK         0.3459 
    133 H133       34.9301   29.9315   -1.6463 H         1 UNK         0.3459 
    134 H134       35.4472   28.0110    2.2411 H         1 UNK         0.0616 
    135 H135       35.5630   29.6702    2.7251 H         1 UNK         0.0616 
    136 H136       34.5096   26.4395    5.4274 H         1 UNK         0.0634 
    137 H137       35.4985   26.4759    3.9994 H         1 UNK         0.0634 
@<TRIPOS>BOND
     1    1    2 1    
     2    1   72 1    
     3    1   73 1    
     4    1   74 1    
     5    2    3 2    
     6    2    4 am   BACKBONE|DICT|INTERRES
     7    4    5 1    
     8    4   75 1    
     9    5    6 1    
    10    5   35 1    
    11    5   76 1    
    12    6    7 1    
    13    6   77 1    
    14    6   78 1    
    15    7    8 1    
    16    8    9 1    
    17    8   79 1    
    18    8   80 1    
    19    9   10 ar   
    20    9   14 ar   
    21   10   11 ar   
    22   10   81 1    
    23   11   12 ar   
    24   11   71 1    
    25   12   13 ar   
    26   12   82 1    
    27   13   14 ar   
    28   13   15 1    
    29   14   83 1    
    30   15   16 1    
    31   15   84 1    
    32   15   85 1    
    33   16   17 1    
    34   17   18 1    
    35   17   86 1    
    36   17   87 1    
    37   18   19 1    
    38   18   37 1    
    39   18   88 1    
    40   19   20 am   BACKBONE|DICT|INTERRES
    41   19   89 1    
    42   20   21 2    
    43   20   22 1    
    44   22   23 1    
    45   22   24 1    
    46   22   90 1    
    47   23   91 1    
    48   23   92 1    
    49   23   93 1    
    50   24   25 am   BACKBONE|DICT|INTERRES
    51   24   94 1    
    52   25   26 2    
    53   25   27 1    
    54   27   28 1    
    55   27   29 1    
    56   27   95 1    
    57   28   96 1    
    58   28   97 1    
    59   28   98 1    
    60   29   30 am   BACKBONE|DICT|INTERRES
    61   29   99 1    
    62   30   31 2    
    63   30   32 1    
    64   32   33 1    
    65   32   34 1    
    66   32  100 1    
    67   33  101 1    
    68   33  102 1    
    69   33  103 1    
    70   34   35 am   BACKBONE|DICT|INTERRES
    71   34  104 1    
    72   35   36 2    
    73   37   38 2    
    74   37   39 am   BACKBONE|DICT|INTERRES
    75   39   40 1    
    76   39  105 1    
    77   40   41 1    
    78   40   42 1    
    79   40  106 1    
    80   41  107 1    
    81   41  108 1    
    82   41  109 1    
    83   42   43 2    
    84   42   44 am   BACKBONE|DICT|INTERRES
    85   44   45 1    
    86   44  110 1    
    87   45   46 1    
    88   45   47 1    
    89   45  111 1    
    90   46  112 1    
    91   46  113 1    
    92   46  114 1    
    93   47   48 2    
    94   47   49 am   BACKBONE|DICT|INTERRES
    95   49   50 1    
    96   49  115 1    
    97   50   51 1    
    98   50   52 1    
    99   50  116 1    
   100   51  117 1    
   101   51  118 1    
   102   51  119 1    
   103   52   53 2    
   104   52   54 am   BACKBONE|DICT|INTERRES
   105   54   55 1    
   106   54  120 1    
   107   55   56 1    
   108   55   57 1    
   109   55  121 1    
   110   56  122 1    
   111   56  123 1    
   112   56  124 1    
   113   57   58 2    
   114   57   59 am   BACKBONE|DICT|INTERRES
   115   59   60 1    
   116   59  125 1    
   117   60   61 1    
   118   60   62 1    
   119   60  126 1    
   120   61  127 1    
   121   61  128 1    
   122   61  129 1    
   123   62   63 2    
   124   62   64 am   BACKBONE|DICT|INTERRES
   125   64   65 1    
   126   64  130 1    
   127   65   66 1    
   128   65   69 1    
   129   65  131 1    
   130   66   67 am   BACKBONE|DICT|INTERRES
   131   66   68 2    
   132   67  132 1    
   133   67  133 1    
   134   69   70 1    
   135   69  134 1    
   136   69  135 1    
   137   70   71 1    
   138   71  136 1    
   139   71  137 1    
@<TRIPOS>SUBSTRUCTURE
     1 UNK         1 GROUP             0       ****    0 ROOT    
