@<TRIPOS>MOLECULE
3R136
137   139    1
SMALL
USER_CHARGES


@<TRIPOS>ATOM
      1 CA         33.7295   28.0208   -1.0395 C.3       0 UNK        -0.1979 
      2 C          32.5583   27.2143   -0.4992 C.2       0 UNK         0.4864 
      3 O          31.6742   27.7731    0.1503 O.2       0 UNK        -0.5359 
      4 N          32.5361   25.9026   -0.7679 N.am      1 UNK        -0.4318 
      5 CA         31.4761   24.9768   -0.3541 C.3       1 UNK         0.0824 
      6 C6         31.9825   23.5136   -0.2590 C.3       12 UNK        -0.0944 
      7 S7         33.3286   23.3235    0.9582 S.3       12 UNK        -0.2672 
      8 C8         32.4690   22.5122    2.3513 C.3       12 UNK         0.0333 
      9 C9         31.3658   23.3619    2.9790 C.ar      12 UNK        -0.0807 
     10 C10        31.5727   24.7179    3.2538 C.ar      12 UNK        -0.0894 
     11 C11        30.5596   25.4915    3.8238 C.ar      12 UNK        -0.0804 
     12 C12        29.3490   24.8887    4.1740 C.ar      12 UNK        -0.0824 
     13 C13        29.1278   23.5312    3.9215 C.ar      12 UNK        -0.0762 
     14 C14        30.1381   22.7775    3.3126 C.ar      12 UNK        -0.0782 
     15 C15        27.8209   22.8656    4.3434 C.3       12 UNK         0.0230 
     16 S16        26.4150   23.2880    3.2575 S.3       12 UNK        -0.2608 
     17 C17        25.8879   24.9017    3.9307 C.3       12 UNK        -0.0989 
     18 CA         26.2055   26.0580    2.9408 C.3       5 UNK         0.0716 
     19 N          25.3072   26.0906    1.7789 N.am      5 UNK        -0.4135 
     20 C          24.0011   26.4052    1.7795 C.2       4 UNK         0.5031 
     21 O          23.3614   26.6583    2.8011 O.2       4 UNK        -0.5229 
     22 CA         23.2802   26.5035    0.4195 C.3       4 UNK         0.0329 
     23 CB         22.9394   27.9704    0.1037 C.3       4 UNK        -0.2001 
     24 N          24.0519   25.9529   -0.6961 N.am      4 UNK        -0.4303 
     25 C          24.1757   24.6478   -0.9720 C.2       3 UNK         0.5044 
     26 O          23.5779   23.7590   -0.3649 O.2       3 UNK        -0.5152 
     27 CA         25.1505   24.2671   -2.1036 C.3       3 UNK         0.0319 
     28 CB         24.3881   24.0732   -3.4243 C.3       3 UNK        -0.2001 
     29 N          26.2516   25.2192   -2.3157 N.am      3 UNK        -0.4354 
     30 C          27.1680   25.5533   -1.3960 C.2       2 UNK         0.4964 
     31 O          27.1341   25.1699   -0.2255 O.2       2 UNK        -0.5047 
     32 CA         28.2757   26.5233   -1.8386 C.3       2 UNK         0.0288 
     33 CB         27.8633   27.9745   -1.5397 C.3       2 UNK        -0.2113 
     34 N          29.5377   26.2406   -1.1530 N.am      2 UNK        -0.4145 
     35 C          30.2524   25.1147   -1.2822 C.2       1 UNK         0.5006 
     36 O          29.9933   24.2316   -2.1038 O.2       1 UNK        -0.5103 
     37 C          26.3598   27.4419    3.6164 C.2       5 UNK         0.5055 
     38 O          26.5778   27.5214    4.8268 O.2       5 UNK        -0.5220 
     39 N          26.2816   28.5129    2.8144 N.am      6 UNK        -0.4450 
     40 CA         26.6468   29.8709    3.2129 C.3       6 UNK         0.0367 
     41 CB         25.9563   30.8754    2.2761 C.3       6 UNK        -0.1929 
     42 C          28.1736   30.0202    3.1407 C.2       6 UNK         0.5070 
     43 O          28.7811   29.5022    2.2010 O.2       6 UNK        -0.5237 
     44 N          28.7614   30.7174    4.1207 N.am      7 UNK        -0.4739 
     45 CA         30.2075   30.9324    4.2187 C.3       7 UNK         0.0276 
     46 CB         30.5486   31.5355    5.5903 C.3       7 UNK        -0.1927 
     47 C          30.7461   31.8141    3.0813 C.2       7 UNK         0.5013 
     48 O          30.1088   32.8071    2.7199 O.2       7 UNK        -0.5193 
     49 N          31.9186   31.4433    2.5617 N.am      8 UNK        -0.4253 
     50 CA         32.5966   32.1039    1.4494 C.3       8 UNK         0.0242 
     51 CB         31.9692   31.6671    0.1095 C.3       8 UNK        -0.2000 
     52 C          34.0797   31.7478    1.5554 C.2       8 UNK         0.4948 
     53 O          34.5539   30.8669    0.8360 O.2       8 UNK        -0.5275 
     54 N          34.7592   32.3575    2.5378 N.am      9 UNK        -0.4246 
     55 CA         36.1121   32.0541    3.0359 C.3       9 UNK         0.0261 
     56 CB         37.1881   32.1826    1.9389 C.3       9 UNK        -0.1959 
     57 C          36.1873   30.6948    3.7561 C.2       9 UNK         0.5033 
     58 O          36.6593   30.6371    4.8927 O.2       9 UNK        -0.5390 
     59 N          35.6675   29.6421    3.1134 N.am      10 UNK        -0.4215 
     60 CA         35.3426   28.3580    3.7289 C.3       10 UNK         0.0240 
     61 CB         34.9850   27.3437    2.6303 C.3       10 UNK        -0.1982 
     62 C          34.1644   28.5148    4.7042 C.2       10 UNK         0.4970 
     63 O          33.2524   29.2998    4.4296 O.2       10 UNK        -0.4916 
     64 N          34.2242   27.7511    5.8008 N.am      11 UNK        -0.4279 
     65 CA         33.2463   27.6444    6.8983 C.3       11 UNK         0.1003 
     66 C          32.8931   28.9522    7.6755 C.2       11 UNK         0.5709 
     67 N          33.5689   30.0706    7.4419 N.am      11 UNK        -0.7358 
     68 O          32.0328   28.9386    8.5528 O.2       11 UNK        -0.4999 
     69 C69        32.0366   26.7247    6.5472 C.3       12 UNK        -0.0954 
     70 S70        30.6014   27.5215    5.7479 S.3       12 UNK        -0.2268 
     71 C71        30.7607   26.9872    4.0150 C.3       12 UNK         0.0203 
     72 H72        34.3627   27.4288   -1.6999 H         1 UNK         0.0888 
     73 H73        33.3660   28.8818   -1.5996 H         1 UNK         0.0888 
     74 H74        34.3442   28.3880   -0.2191 H         1 UNK         0.0888 
     75 H75        33.2823   25.4920   -1.3106 H         1 UNK         0.3017 
     76 H76        31.1341   25.2671    0.6404 H         1 UNK         0.0873 
     77 H77        31.1643   22.8422    0.0094 H         1 UNK         0.0745 
     78 H78        32.3505   23.1698   -1.2275 H         1 UNK         0.0745 
     79 H79        32.0718   21.5570    2.0043 H         1 UNK         0.0705 
     80 H80        33.2037   22.2773    3.1224 H         1 UNK         0.0705 
     81 H81        32.5159   25.1790    2.9952 H         1 UNK         0.1334 
     82 H82        28.5831   25.4866    4.6453 H         1 UNK         0.1417 
     83 H83        29.9747   21.7264    3.1161 H         1 UNK         0.1562 
     84 H84        27.5893   23.1250    5.3774 H         1 UNK         0.0748 
     85 H85        27.9376   21.7808    4.3339 H         1 UNK         0.0748 
     86 H86        26.3679   25.0441    4.8989 H         1 UNK         0.0940 
     87 H87        24.8204   24.8599    4.1502 H         1 UNK         0.0940 
     88 H88        27.1954   25.8669    2.5230 H         1 UNK         0.0703 
     89 H89        25.7536   25.8322    0.9030 H         1 UNK         0.3081 
     90 H90        22.3445   25.9470    0.5065 H         1 UNK         0.0719 
     91 H91        23.8361   28.5840    0.0070 H         1 UNK         0.0809 
     92 H92        22.3718   28.0554   -0.8232 H         1 UNK         0.0809 
     93 H93        22.3292   28.4096    0.8943 H         1 UNK         0.0809 
     94 H94        24.5675   26.6091   -1.2641 H         1 UNK         0.2990 
     95 H95        25.6003   23.3111   -1.8272 H         1 UNK         0.0690 
     96 H96        25.0429   23.6960   -4.2102 H         1 UNK         0.0788 
     97 H97        23.9429   25.0054   -3.7746 H         1 UNK         0.0788 
     98 H98        23.5794   23.3503   -3.3062 H         1 UNK         0.0788 
     99 H99        26.3398   25.5988   -3.2479 H         1 UNK         0.2993 
    100 H100       28.4403   26.4098   -2.9122 H         1 UNK         0.0949 
    101 H101       26.9334   28.2338   -2.0475 H         1 UNK         0.0767 
    102 H102       27.7120   28.1392   -0.4715 H         1 UNK         0.0767 
    103 H103       28.6233   28.6790   -1.8788 H         1 UNK         0.0767 
    104 H104       29.8721   26.9334   -0.4909 H         1 UNK         0.3013 
    105 H105       26.1563   28.3573    1.8259 H         1 UNK         0.3121 
    106 H106       26.3081   30.0530    4.2353 H         1 UNK         0.0774 
    107 H107       24.8716   30.7718    2.3126 H         1 UNK         0.0815 
    108 H108       26.1947   31.9005    2.5627 H         1 UNK         0.0815 
    109 H109       26.2723   30.7461    1.2400 H         1 UNK         0.0815 
    110 H110       28.1898   31.1409    4.8370 H         1 UNK         0.2987 
    111 H111       30.6882   29.9559    4.1460 H         1 UNK         0.0949 
    112 H112       31.6257   31.6755    5.6935 H         1 UNK         0.0806 
    113 H113       30.2343   30.8777    6.4012 H         1 UNK         0.0806 
    114 H114       30.0751   32.5071    5.7356 H         1 UNK         0.0806 
    115 H115       32.3966   30.6408    2.9622 H         1 UNK         0.3010 
    116 H116       32.5002   33.1875    1.5469 H         1 UNK         0.0829 
    117 H117       30.9318   31.9926    0.0314 H         1 UNK         0.0813 
    118 H118       32.5099   32.0968   -0.7345 H         1 UNK         0.0813 
    119 H119       31.9854   30.5825   -0.0070 H         1 UNK         0.0813 
    120 H120       34.2516   33.0327    3.0937 H         1 UNK         0.3038 
    121 H121       36.3250   32.8173    3.7864 H         1 UNK         0.0769 
    122 H122       37.0833   31.4238    1.1632 H         1 UNK         0.0811 
    123 H123       38.1864   32.0703    2.3637 H         1 UNK         0.0811 
    124 H124       37.1486   33.1601    1.4585 H         1 UNK         0.0811 
    125 H125       35.2719   29.8272    2.1938 H         1 UNK         0.3204 
    126 H126       36.2239   28.0045    4.2685 H         1 UNK         0.0748 
    127 H127       35.7824   27.2545    1.8922 H         1 UNK         0.0771 
    128 H128       34.8215   26.3512    3.0523 H         1 UNK         0.0771 
    129 H129       34.0708   27.6276    2.1077 H         1 UNK         0.0771 
    130 H130       35.0408   27.1693    5.9185 H         1 UNK         0.2980 
    131 H131       33.8097   27.0849    7.6459 H         1 UNK         0.0545 
    132 H132       34.2726   30.0993    6.7215 H         1 UNK         0.3459 
    133 H133       33.3485   30.8990    7.9705 H         1 UNK         0.3459 
    134 H134       31.6585   26.2784    7.4683 H         1 UNK         0.0616 
    135 H135       32.3703   25.8802    5.9432 H         1 UNK         0.0616 
    136 H136       30.0106   27.5097    3.4225 H         1 UNK         0.0634 
    137 H137       31.7265   27.3029    3.6222 H         1 UNK         0.0634 
@<TRIPOS>BOND
     1    1    2 1    
     2    1   72 1    
     3    1   73 1    
     4    1   74 1    
     5    2    3 2    
     6    2    4 am   BACKBONE|DICT|INTERRES
     7    4    5 1    
     8    4   75 1    
     9    5    6 1    
    10    5   35 1    
    11    5   76 1    
    12    6    7 1    
    13    6   77 1    
    14    6   78 1    
    15    7    8 1    
    16    8    9 1    
    17    8   79 1    
    18    8   80 1    
    19    9   10 ar   
    20    9   14 ar   
    21   10   11 ar   
    22   10   81 1    
    23   11   12 ar   
    24   11   71 1    
    25   12   13 ar   
    26   12   82 1    
    27   13   14 ar   
    28   13   15 1    
    29   14   83 1    
    30   15   16 1    
    31   15   84 1    
    32   15   85 1    
    33   16   17 1    
    34   17   18 1    
    35   17   86 1    
    36   17   87 1    
    37   18   19 1    
    38   18   37 1    
    39   18   88 1    
    40   19   20 am   BACKBONE|DICT|INTERRES
    41   19   89 1    
    42   20   21 2    
    43   20   22 1    
    44   22   23 1    
    45   22   24 1    
    46   22   90 1    
    47   23   91 1    
    48   23   92 1    
    49   23   93 1    
    50   24   25 am   BACKBONE|DICT|INTERRES
    51   24   94 1    
    52   25   26 2    
    53   25   27 1    
    54   27   28 1    
    55   27   29 1    
    56   27   95 1    
    57   28   96 1    
    58   28   97 1    
    59   28   98 1    
    60   29   30 am   BACKBONE|DICT|INTERRES
    61   29   99 1    
    62   30   31 2    
    63   30   32 1    
    64   32   33 1    
    65   32   34 1    
    66   32  100 1    
    67   33  101 1    
    68   33  102 1    
    69   33  103 1    
    70   34   35 am   BACKBONE|DICT|INTERRES
    71   34  104 1    
    72   35   36 2    
    73   37   38 2    
    74   37   39 am   BACKBONE|DICT|INTERRES
    75   39   40 1    
    76   39  105 1    
    77   40   41 1    
    78   40   42 1    
    79   40  106 1    
    80   41  107 1    
    81   41  108 1    
    82   41  109 1    
    83   42   43 2    
    84   42   44 am   BACKBONE|DICT|INTERRES
    85   44   45 1    
    86   44  110 1    
    87   45   46 1    
    88   45   47 1    
    89   45  111 1    
    90   46  112 1    
    91   46  113 1    
    92   46  114 1    
    93   47   48 2    
    94   47   49 am   BACKBONE|DICT|INTERRES
    95   49   50 1    
    96   49  115 1    
    97   50   51 1    
    98   50   52 1    
    99   50  116 1    
   100   51  117 1    
   101   51  118 1    
   102   51  119 1    
   103   52   53 2    
   104   52   54 am   BACKBONE|DICT|INTERRES
   105   54   55 1    
   106   54  120 1    
   107   55   56 1    
   108   55   57 1    
   109   55  121 1    
   110   56  122 1    
   111   56  123 1    
   112   56  124 1    
   113   57   58 2    
   114   57   59 am   BACKBONE|DICT|INTERRES
   115   59   60 1    
   116   59  125 1    
   117   60   61 1    
   118   60   62 1    
   119   60  126 1    
   120   61  127 1    
   121   61  128 1    
   122   61  129 1    
   123   62   63 2    
   124   62   64 am   BACKBONE|DICT|INTERRES
   125   64   65 1    
   126   64  130 1    
   127   65   66 1    
   128   65   69 1    
   129   65  131 1    
   130   66   67 am   BACKBONE|DICT|INTERRES
   131   66   68 2    
   132   67  132 1    
   133   67  133 1    
   134   69   70 1    
   135   69  134 1    
   136   69  135 1    
   137   70   71 1    
   138   71  136 1    
   139   71  137 1    
@<TRIPOS>SUBSTRUCTURE
     1 UNK         1 GROUP             0       ****    0 ROOT    
