@<TRIPOS>MOLECULE
3R136
137   139    1
SMALL
USER_CHARGES


@<TRIPOS>ATOM
      1 CA         26.2071   23.2521    3.1610 C.3       0 UNK        -0.1979 
      2 C          26.8047   22.5353    1.9596 C.2       0 UNK         0.4864 
      3 O          26.3751   21.4293    1.6289 O.2       0 UNK        -0.5359 
      4 N          27.7728   23.1715    1.2934 N.am      1 UNK        -0.4318 
      5 CA         28.4087   22.7066    0.0604 C.3       1 UNK         0.0824 
      6 C6         29.9534   22.6680    0.1892 C.3       12 UNK        -0.0944 
      7 S7         30.4995   21.3108    1.2758 S.3       12 UNK        -0.2672 
      8 C8         32.2944   21.6177    1.3738 C.3       12 UNK         0.0333 
      9 C9         32.6253   22.8704    2.1744 C.ar      12 UNK        -0.0807 
     10 C10        33.3229   23.9288    1.5817 C.ar      12 UNK        -0.0894 
     11 C11        33.6170   25.0825    2.3159 C.ar      12 UNK        -0.0804 
     12 C12        33.1875   25.1820    3.6417 C.ar      12 UNK        -0.0824 
     13 C13        32.4882   24.1330    4.2441 C.ar      12 UNK        -0.0762 
     14 C14        32.2354   22.9684    3.5138 C.ar      12 UNK        -0.0782 
     15 C15        31.9882   24.2749    5.6761 C.3       12 UNK         0.0230 
     16 S16        30.1678   24.1630    5.8377 S.3       12 UNK        -0.2608 
     17 C17        29.5212   24.9206    4.3058 C.3       12 UNK        -0.0989 
     18 CA         29.8695   26.4257    4.1370 C.3       5 UNK         0.0716 
     19 N          30.1375   26.8286    2.7471 N.am      5 UNK        -0.4135 
     20 C          29.3783   26.5848    1.6731 C.2       4 UNK         0.5031 
     21 O          28.3583   25.8918    1.7016 O.2       4 UNK        -0.5229 
     22 CA         29.8177   27.2692    0.3737 C.3       4 UNK         0.0329 
     23 CB         31.0426   26.5845   -0.2513 C.3       4 UNK        -0.2001 
     24 N          28.7325   27.3179   -0.6044 N.am      4 UNK        -0.4303 
     25 C          27.8020   28.2828   -0.6397 C.2       3 UNK         0.5044 
     26 O          27.7850   29.2400    0.1340 O.2       3 UNK        -0.5152 
     27 CA         26.7173   28.1974   -1.7302 C.3       3 UNK         0.0319 
     28 CB         27.0660   29.1298   -2.9020 C.3       3 UNK        -0.2001 
     29 N          26.5117   26.8407   -2.2410 N.am      3 UNK        -0.4354 
     30 C          25.8495   25.8804   -1.5835 C.2       2 UNK         0.4964 
     31 O          25.2712   26.0583   -0.5106 O.2       2 UNK        -0.5047 
     32 CA         25.8432   24.4700   -2.2031 C.3       2 UNK         0.0288 
     33 CB         26.3057   24.4091   -3.6784 C.3       2 UNK        -0.2113 
     34 N          26.6159   23.5505   -1.3614 N.am      2 UNK        -0.4145 
     35 C          27.9187   23.6486   -1.0511 C.2       1 UNK         0.5006 
     36 O          28.6842   24.4752   -1.5524 O.2       1 UNK        -0.5103 
     37 C          28.8347   27.3514    4.8091 C.2       5 UNK         0.5055 
     38 O          29.0194   27.7297    5.9668 O.2       5 UNK        -0.5220 
     39 N          27.8027   27.7521    4.0535 N.am      6 UNK        -0.4450 
     40 CA         26.9425   28.8986    4.3408 C.3       6 UNK         0.0367 
     41 CB         25.7700   28.8954    3.3465 C.3       6 UNK        -0.1929 
     42 C          27.7355   30.2148    4.2375 C.2       6 UNK         0.5070 
     43 O          28.7812   30.2523    3.5862 O.2       6 UNK        -0.5237 
     44 N          27.2079   31.2779    4.8592 N.am      7 UNK        -0.4739 
     45 CA         27.8538   32.5860    5.0581 C.3       7 UNK         0.0276 
     46 CB         26.8742   33.5147    5.7946 C.3       7 UNK        -0.1927 
     47 C          28.4101   33.2889    3.8025 C.2       7 UNK         0.5013 
     48 O          29.2781   34.1517    3.9416 O.2       7 UNK        -0.5193 
     49 N          27.9266   32.9115    2.6112 N.am      8 UNK        -0.4253 
     50 CA         28.4377   33.3716    1.3187 C.3       8 UNK         0.0242 
     51 CB         27.4675   32.9420    0.2063 C.3       8 UNK        -0.2000 
     52 C          29.8687   32.8879    1.0075 C.2       8 UNK         0.4948 
     53 O          30.5801   33.5870    0.2842 O.2       8 UNK        -0.5275 
     54 N          30.2754   31.7313    1.5512 N.am      9 UNK        -0.4246 
     55 CA         31.6095   31.1530    1.3855 C.3       9 UNK         0.0261 
     56 CB         31.8063   30.5971   -0.0424 C.3       9 UNK        -0.1959 
     57 C          31.8643   30.1238    2.4949 C.2       9 UNK         0.5033 
     58 O          32.0273   28.9299    2.2285 O.2       9 UNK        -0.5390 
     59 N          31.8870   30.5999    3.7443 N.am      10 UNK        -0.4215 
     60 CA         32.1557   29.7961    4.9379 C.3       10 UNK         0.0240 
     61 CB         31.4778   30.4598    6.1509 C.3       10 UNK        -0.1982 
     62 C          33.6704   29.5911    5.1314 C.2       10 UNK         0.4970 
     63 O          34.2408   30.1001    6.0989 O.2       10 UNK        -0.4916 
     64 N          34.3011   28.8928    4.1772 N.am      11 UNK        -0.4279 
     65 CA         35.7426   28.5982    4.1642 C.3       11 UNK         0.1003 
     66 C          36.2143   27.6894    5.3408 C.2       11 UNK         0.5709 
     67 N          37.5022   27.7117    5.6599 N.am      11 UNK        -0.7358 
     68 O          35.4364   26.9526    5.9468 O.2       11 UNK        -0.4999 
     69 C69        36.2182   28.1242    2.7563 C.3       12 UNK        -0.0954 
     70 S70        36.0647   26.3365    2.3953 S.3       12 UNK        -0.2268 
     71 C71        34.3948   26.2282    1.6869 C.3       12 UNK         0.0203 
     72 H72        25.1320   23.0808    3.2080 H         1 UNK         0.0888 
     73 H73        26.6537   22.8790    4.0823 H         1 UNK         0.0888 
     74 H74        26.3699   24.3286    3.1059 H         1 UNK         0.0888 
     75 H75        28.0162   24.1267    1.5575 H         1 UNK         0.3017 
     76 H76        28.0672   21.7033   -0.2039 H         1 UNK         0.0873 
     77 H77        30.4229   22.5252   -0.7860 H         1 UNK         0.0745 
     78 H78        30.3303   23.6117    0.5858 H         1 UNK         0.0745 
     79 H79        32.7718   20.7599    1.8494 H         1 UNK         0.0705 
     80 H80        32.7027   21.6765    0.3636 H         1 UNK         0.0705 
     81 H81        33.6403   23.8541    0.5506 H         1 UNK         0.1334 
     82 H82        33.4062   26.0783    4.2057 H         1 UNK         0.1417 
     83 H83        31.6923   22.1547    3.9757 H         1 UNK         0.1562 
     84 H84        32.3132   25.2256    6.1023 H         1 UNK         0.0748 
     85 H85        32.4444   23.4984    6.2917 H         1 UNK         0.0748 
     86 H86        28.4423   24.7658    4.2819 H         1 UNK         0.0940 
     87 H87        29.8976   24.3415    3.4624 H         1 UNK         0.0940 
     88 H88        30.8130   26.6154    4.6474 H         1 UNK         0.0703 
     89 H89        30.9160   27.4742    2.6220 H         1 UNK         0.3081 
     90 H90        30.0941   28.2881    0.6370 H         1 UNK         0.0719 
     91 H91        31.8714   26.5533    0.4539 H         1 UNK         0.0809 
     92 H92        30.8334   25.5604   -0.5546 H         1 UNK         0.0809 
     93 H93        31.3904   27.1283   -1.1295 H         1 UNK         0.0809 
     94 H94        28.6304   26.5026   -1.1991 H         1 UNK         0.2990 
     95 H95        25.7822   28.5470   -1.2871 H         1 UNK         0.0690 
     96 H96        26.2737   29.1403   -3.6508 H         1 UNK         0.0788 
     97 H97        27.9923   28.8310   -3.3945 H         1 UNK         0.0788 
     98 H98        27.1971   30.1566   -2.5567 H         1 UNK         0.0788 
     99 H99        26.9710   26.6005   -3.1078 H         1 UNK         0.2993 
    100 H100       24.8071   24.1292   -2.1697 H         1 UNK         0.0949 
    101 H101       27.3465   24.7063   -3.8086 H         1 UNK         0.0767 
    102 H102       26.2051   23.3981   -4.0733 H         1 UNK         0.0767 
    103 H103       25.6943   25.0576   -4.3076 H         1 UNK         0.0767 
    104 H104       26.0690   22.8673   -0.8549 H         1 UNK         0.3013 
    105 H105       27.7484   27.3753    3.1153 H         1 UNK         0.3121 
    106 H106       26.5568   28.7968    5.3573 H         1 UNK         0.0774 
    107 H107       26.1146   29.0074    2.3174 H         1 UNK         0.0815 
    108 H108       25.1995   27.9684    3.4079 H         1 UNK         0.0815 
    109 H109       25.0780   29.7137    3.5491 H         1 UNK         0.0815 
    110 H110       26.3252   31.1529    5.3346 H         1 UNK         0.2987 
    111 H111       28.7105   32.4136    5.7127 H         1 UNK         0.0949 
    112 H112       26.5779   33.0993    6.7579 H         1 UNK         0.0806 
    113 H113       27.3278   34.4872    5.9925 H         1 UNK         0.0806 
    114 H114       25.9701   33.6904    5.2101 H         1 UNK         0.0806 
    115 H115       27.2355   32.1758    2.5956 H         1 UNK         0.3010 
    116 H116       28.4637   34.4633    1.3419 H         1 UNK         0.0829 
    117 H117       27.3706   31.8574    0.1529 H         1 UNK         0.0813 
    118 H118       26.4734   33.3615    0.3614 H         1 UNK         0.0813 
    119 H119       27.8150   33.2855   -0.7691 H         1 UNK         0.0813 
    120 H120       29.6445   31.2169    2.1659 H         1 UNK         0.3038 
    121 H121       32.3498   31.9418    1.5351 H         1 UNK         0.0769 
    122 H122       31.9418   31.4068   -0.7593 H         1 UNK         0.0811 
    123 H123       30.9514   30.0135   -0.3780 H         1 UNK         0.0811 
    124 H124       32.6919   29.9636   -0.1090 H         1 UNK         0.0811 
    125 H125       31.7477   31.5899    3.8875 H         1 UNK         0.3204 
    126 H126       31.7064   28.8097    4.8157 H         1 UNK         0.0748 
    127 H127       31.8498   31.4702    6.3250 H         1 UNK         0.0771 
    128 H128       30.3978   30.5167    6.0126 H         1 UNK         0.0771 
    129 H129       31.6532   29.8824    7.0597 H         1 UNK         0.0771 
    130 H130       33.7540   28.5484    3.3981 H         1 UNK         0.2980 
    131 H131       36.2236   29.5649    4.3347 H         1 UNK         0.0545 
    132 H132       37.8295   27.1227    6.4107 H         1 UNK         0.3459 
    133 H133       38.1540   28.2984    5.1620 H         1 UNK         0.3459 
    134 H134       37.2779   28.3623    2.6514 H         1 UNK         0.0616 
    135 H135       35.7244   28.6973    1.9692 H         1 UNK         0.0616 
    136 H136       34.4753   26.1024    0.6061 H         1 UNK         0.0634 
    137 H137       33.8539   27.1588    1.8476 H         1 UNK         0.0634 
@<TRIPOS>BOND
     1    1    2 1    
     2    1   72 1    
     3    1   73 1    
     4    1   74 1    
     5    2    3 2    
     6    2    4 am   BACKBONE|DICT|INTERRES
     7    4    5 1    
     8    4   75 1    
     9    5    6 1    
    10    5   35 1    
    11    5   76 1    
    12    6    7 1    
    13    6   77 1    
    14    6   78 1    
    15    7    8 1    
    16    8    9 1    
    17    8   79 1    
    18    8   80 1    
    19    9   10 ar   
    20    9   14 ar   
    21   10   11 ar   
    22   10   81 1    
    23   11   12 ar   
    24   11   71 1    
    25   12   13 ar   
    26   12   82 1    
    27   13   14 ar   
    28   13   15 1    
    29   14   83 1    
    30   15   16 1    
    31   15   84 1    
    32   15   85 1    
    33   16   17 1    
    34   17   18 1    
    35   17   86 1    
    36   17   87 1    
    37   18   19 1    
    38   18   37 1    
    39   18   88 1    
    40   19   20 am   BACKBONE|DICT|INTERRES
    41   19   89 1    
    42   20   21 2    
    43   20   22 1    
    44   22   23 1    
    45   22   24 1    
    46   22   90 1    
    47   23   91 1    
    48   23   92 1    
    49   23   93 1    
    50   24   25 am   BACKBONE|DICT|INTERRES
    51   24   94 1    
    52   25   26 2    
    53   25   27 1    
    54   27   28 1    
    55   27   29 1    
    56   27   95 1    
    57   28   96 1    
    58   28   97 1    
    59   28   98 1    
    60   29   30 am   BACKBONE|DICT|INTERRES
    61   29   99 1    
    62   30   31 2    
    63   30   32 1    
    64   32   33 1    
    65   32   34 1    
    66   32  100 1    
    67   33  101 1    
    68   33  102 1    
    69   33  103 1    
    70   34   35 am   BACKBONE|DICT|INTERRES
    71   34  104 1    
    72   35   36 2    
    73   37   38 2    
    74   37   39 am   BACKBONE|DICT|INTERRES
    75   39   40 1    
    76   39  105 1    
    77   40   41 1    
    78   40   42 1    
    79   40  106 1    
    80   41  107 1    
    81   41  108 1    
    82   41  109 1    
    83   42   43 2    
    84   42   44 am   BACKBONE|DICT|INTERRES
    85   44   45 1    
    86   44  110 1    
    87   45   46 1    
    88   45   47 1    
    89   45  111 1    
    90   46  112 1    
    91   46  113 1    
    92   46  114 1    
    93   47   48 2    
    94   47   49 am   BACKBONE|DICT|INTERRES
    95   49   50 1    
    96   49  115 1    
    97   50   51 1    
    98   50   52 1    
    99   50  116 1    
   100   51  117 1    
   101   51  118 1    
   102   51  119 1    
   103   52   53 2    
   104   52   54 am   BACKBONE|DICT|INTERRES
   105   54   55 1    
   106   54  120 1    
   107   55   56 1    
   108   55   57 1    
   109   55  121 1    
   110   56  122 1    
   111   56  123 1    
   112   56  124 1    
   113   57   58 2    
   114   57   59 am   BACKBONE|DICT|INTERRES
   115   59   60 1    
   116   59  125 1    
   117   60   61 1    
   118   60   62 1    
   119   60  126 1    
   120   61  127 1    
   121   61  128 1    
   122   61  129 1    
   123   62   63 2    
   124   62   64 am   BACKBONE|DICT|INTERRES
   125   64   65 1    
   126   64  130 1    
   127   65   66 1    
   128   65   69 1    
   129   65  131 1    
   130   66   67 am   BACKBONE|DICT|INTERRES
   131   66   68 2    
   132   67  132 1    
   133   67  133 1    
   134   69   70 1    
   135   69  134 1    
   136   69  135 1    
   137   70   71 1    
   138   71  136 1    
   139   71  137 1    
@<TRIPOS>SUBSTRUCTURE
     1 UNK         1 GROUP             0       ****    0 ROOT    
