@<TRIPOS>MOLECULE
3R136
137   139    1
SMALL
USER_CHARGES


@<TRIPOS>ATOM
      1 CA         25.2678   21.6484   -0.8374 C.3       0 UNK        -0.1979 
      2 C          26.2247   22.7998   -0.5737 C.2       0 UNK         0.4864 
      3 O          25.7865   23.8803   -0.1723 O.2       0 UNK        -0.5359 
      4 N          27.5327   22.5802   -0.7785 N.am      1 UNK        -0.4318 
      5 CA         28.5945   23.5801   -0.5975 C.3       1 UNK         0.0824 
      6 C6         29.9637   23.0791   -1.1237 C.3       12 UNK        -0.0944 
      7 S7         30.7092   21.7227   -0.1476 S.3       12 UNK        -0.2672 
      8 C8         32.4366   22.2795    0.0527 C.3       12 UNK         0.0333 
      9 C9         32.5486   23.5951    0.8134 C.ar      12 UNK        -0.0807 
     10 C10        32.3266   23.6348    2.1941 C.ar      12 UNK        -0.0894 
     11 C11        32.4200   24.8442    2.8891 C.ar      12 UNK        -0.0804 
     12 C12        32.7056   26.0191    2.1903 C.ar      12 UNK        -0.0824 
     13 C13        32.9371   25.9966    0.8129 C.ar      12 UNK        -0.0762 
     14 C14        32.8850   24.7728    0.1355 C.ar      12 UNK        -0.0782 
     15 C15        33.2359   27.3061    0.0824 C.3       12 UNK         0.0230 
     16 S16        32.3596   27.5251   -1.5109 S.3       12 UNK        -0.2608 
     17 C17        30.6572   26.9825   -1.1385 C.3       12 UNK        -0.0989 
     18 CA         29.6680   28.0991   -0.7366 C.3       5 UNK         0.0716 
     19 N          28.2997   27.5779   -0.7053 N.am      5 UNK        -0.4135 
     20 C          27.2030   28.2861   -0.9900 C.2       4 UNK         0.5031 
     21 O          27.2198   29.4643   -1.3460 O.2       4 UNK        -0.5229 
     22 CA         25.8573   27.5526   -0.8688 C.3       4 UNK         0.0329 
     23 CB         25.5772   26.7343   -2.1398 C.3       4 UNK        -0.2001 
     24 N          25.7380   26.6775    0.3023 N.am      4 UNK        -0.4303 
     25 C          25.6775   27.1074    1.5715 C.2       3 UNK         0.5044 
     26 O          25.8916   28.2709    1.9080 O.2       3 UNK        -0.5152 
     27 CA         25.3070   26.0706    2.6432 C.3       3 UNK         0.0319 
     28 CB         23.8718   25.5548    2.4448 C.3       3 UNK        -0.2001 
     29 N          26.2410   24.9499    2.6005 N.am      3 UNK        -0.4354 
     30 C          27.1031   24.6289    3.5753 C.2       2 UNK         0.4964 
     31 O          27.0616   25.1114    4.7070 O.2       2 UNK        -0.5047 
     32 CA         28.2216   23.6149    3.2501 C.3       2 UNK         0.0288 
     33 CB         28.0290   22.3145    4.0472 C.3       2 UNK        -0.2113 
     34 N          28.3629   23.2803    1.8306 N.am      2 UNK        -0.4145 
     35 C          28.6578   24.1377    0.8426 C.2       1 UNK         0.5006 
     36 O          28.8567   25.3402    1.0214 O.2       1 UNK        -0.5103 
     37 C          30.0071   28.7344    0.6246 C.2       5 UNK         0.5055 
     38 O          30.6286   29.7975    0.6618 O.2       5 UNK        -0.5220 
     39 N          29.5365   28.1150    1.7186 N.am      6 UNK        -0.4450 
     40 CA         29.6743   28.6104    3.0915 C.3       6 UNK         0.0367 
     41 CB         29.0722   27.5934    4.0659 C.3       6 UNK        -0.1929 
     42 C          29.0637   30.0050    3.3287 C.2       6 UNK         0.5070 
     43 O          29.5364   30.7281    4.2031 O.2       6 UNK        -0.5237 
     44 N          28.0546   30.3801    2.5314 N.am      7 UNK        -0.4739 
     45 CA         27.4859   31.7292    2.4903 C.3       7 UNK         0.0276 
     46 CB         26.2192   31.7129    1.6208 C.3       7 UNK        -0.1927 
     47 C          28.4698   32.8031    1.9837 C.2       7 UNK         0.5013 
     48 O          28.3067   33.9701    2.3398 O.2       7 UNK        -0.5193 
     49 N          29.4569   32.4048    1.1685 N.am      8 UNK        -0.4253 
     50 CA         30.5016   33.2779    0.6340 C.3       8 UNK         0.0242 
     51 CB         30.7625   32.9237   -0.8399 C.3       8 UNK        -0.2000 
     52 C          31.7963   33.1735    1.4538 C.2       8 UNK         0.4948 
     53 O          32.4033   34.2056    1.7432 O.2       8 UNK        -0.5275 
     54 N          32.2008   31.9478    1.8107 N.am      9 UNK        -0.4246 
     55 CA         33.4231   31.6574    2.5575 C.3       9 UNK         0.0261 
     56 CB         34.5553   31.3148    1.5707 C.3       9 UNK        -0.1959 
     57 C          33.1373   30.5116    3.5326 C.2       9 UNK         0.5033 
     58 O          33.2438   29.3480    3.1471 O.2       9 UNK        -0.5390 
     59 N          32.7322   30.8591    4.7601 N.am      10 UNK        -0.4215 
     60 CA         32.3257   29.9198    5.8090 C.3       10 UNK         0.0240 
     61 CB         31.7510   30.7095    6.9968 C.3       10 UNK        -0.1982 
     62 C          33.4614   28.9984    6.2826 C.2       10 UNK         0.4970 
     63 O          34.5952   29.4559    6.4459 O.2       10 UNK        -0.4916 
     64 N          33.1104   27.7348    6.5447 N.am      11 UNK        -0.4279 
     65 CA         33.9693   26.7469    7.2105 C.3       11 UNK         0.1003 
     66 C          34.0491   27.0052    8.7389 C.2       11 UNK         0.5709 
     67 N          35.1629   26.6567    9.3679 N.am      11 UNK        -0.7358 
     68 O          33.1029   27.4825    9.3633 O.2       11 UNK        -0.4999 
     69 C69        33.4961   25.2991    6.9141 C.3       12 UNK        -0.0954 
     70 S70        33.8774   24.8034    5.2041 S.3       12 UNK        -0.2268 
     71 C71        32.2503   24.8935    4.3984 C.3       12 UNK         0.0203 
     72 H72        24.7191   21.4026    0.0712 H         1 UNK         0.0888 
     73 H73        24.5477   21.9305   -1.6048 H         1 UNK         0.0888 
     74 H74        25.7899   20.7528   -1.1733 H         1 UNK         0.0888 
     75 H75        27.8408   21.6707   -1.0936 H         1 UNK         0.3017 
     76 H76        28.3111   24.4242   -1.2294 H         1 UNK         0.0873 
     77 H77        30.6574   23.9155   -1.1882 H         1 UNK         0.0745 
     78 H78        29.8543   22.7279   -2.1508 H         1 UNK         0.0745 
     79 H79        32.8991   22.3610   -0.9322 H         1 UNK         0.0705 
     80 H80        32.9941   21.5086    0.5863 H         1 UNK         0.0705 
     81 H81        32.0910   22.7232    2.7261 H         1 UNK         0.1334 
     82 H82        32.7651   26.9525    2.7306 H         1 UNK         0.1417 
     83 H83        33.0709   24.7460   -0.9296 H         1 UNK         0.1562 
     84 H84        34.3093   27.3690   -0.0976 H         1 UNK         0.0748 
     85 H85        32.9867   28.1568    0.7179 H         1 UNK         0.0748 
     86 H86        30.6724   26.2005   -0.3867 H         1 UNK         0.0940 
     87 H87        30.2918   26.4966   -2.0445 H         1 UNK         0.0940 
     88 H88        29.7289   28.8865   -1.4913 H         1 UNK         0.0703 
     89 H89        28.1906   26.6428   -0.3319 H         1 UNK         0.3081 
     90 H90        25.0815   28.3167   -0.7848 H         1 UNK         0.0719 
     91 H91        24.5779   26.2994   -2.1179 H         1 UNK         0.0809 
     92 H92        25.6376   27.3608   -3.0308 H         1 UNK         0.0809 
     93 H93        26.2917   25.9195   -2.2630 H         1 UNK         0.0809 
     94 H94        25.5912   25.6877    0.1124 H         1 UNK         0.2990 
     95 H95        25.3525   26.5746    3.6109 H         1 UNK         0.0690 
     96 H96        23.1586   26.3798    2.4331 H         1 UNK         0.0788 
     97 H97        23.5808   24.8865    3.2549 H         1 UNK         0.0788 
     98 H98        23.7577   25.0084    1.5078 H         1 UNK         0.0788 
     99 H99        26.3305   24.4853    1.7038 H         1 UNK         0.2993 
    100 H100       29.1601   24.0748    3.5661 H         1 UNK         0.0949 
    101 H101       27.1139   21.7967    3.7572 H         1 UNK         0.0767 
    102 H102       28.8652   21.6308    3.8993 H         1 UNK         0.0767 
    103 H103       27.9649   22.5160    5.1175 H         1 UNK         0.0767 
    104 H104       28.1996   22.3167    1.5771 H         1 UNK         0.3013 
    105 H105       29.0940   27.2088    1.6009 H         1 UNK         0.3121 
    106 H106       30.7425   28.6798    3.2908 H         1 UNK         0.0774 
    107 H107       27.9940   27.5090    3.9285 H         1 UNK         0.0815 
    108 H108       29.2444   27.8918    5.1006 H         1 UNK         0.0815 
    109 H109       29.5112   26.6051    3.9335 H         1 UNK         0.0815 
    110 H110       27.6545   29.6953    1.9017 H         1 UNK         0.2987 
    111 H111       27.2016   32.0037    3.5083 H         1 UNK         0.0949 
    112 H112       26.4380   31.4104    0.5963 H         1 UNK         0.0806 
    113 H113       25.4733   31.0261    2.0199 H         1 UNK         0.0806 
    114 H114       25.7589   32.7010    1.5796 H         1 UNK         0.0806 
    115 H115       29.5543   31.4156    0.9666 H         1 UNK         0.3010 
    116 H116       30.1693   34.3178    0.6692 H         1 UNK         0.0829 
    117 H117       29.8596   33.0392   -1.4396 H         1 UNK         0.0813 
    118 H118       31.5224   33.5784   -1.2683 H         1 UNK         0.0813 
    119 H119       31.1127   31.8978   -0.9589 H         1 UNK         0.0813 
    120 H120       31.6523   31.1391    1.5224 H         1 UNK         0.3038 
    121 H121       33.7300   32.5279    3.1416 H         1 UNK         0.0769 
    122 H122       34.2863   30.4809    0.9209 H         1 UNK         0.0811 
    123 H123       35.4653   31.0352    2.1027 H         1 UNK         0.0811 
    124 H124       34.7974   32.1673    0.9365 H         1 UNK         0.0811 
    125 H125       32.6670   31.8401    4.9881 H         1 UNK         0.3204 
    126 H126       31.5288   29.2977    5.4008 H         1 UNK         0.0748 
    127 H127       32.4916   31.3830    7.4299 H         1 UNK         0.0771 
    128 H128       30.8880   31.3043    6.6962 H         1 UNK         0.0771 
    129 H129       31.4183   30.0381    7.7897 H         1 UNK         0.0771 
    130 H130       32.1460   27.4648    6.4319 H         1 UNK         0.2980 
    131 H131       34.9801   26.8616    6.8141 H         1 UNK         0.0545 
    132 H132       35.2298   26.8036   10.3625 H         1 UNK         0.3459 
    133 H133       35.9398   26.2523    8.8687 H         1 UNK         0.3459 
    134 H134       34.0078   24.5859    7.5631 H         1 UNK         0.0616 
    135 H135       32.4303   25.1805    7.1161 H         1 UNK         0.0616 
    136 H136       31.6220   24.0721    4.7462 H         1 UNK         0.0634 
    137 H137       31.7491   25.8190    4.6843 H         1 UNK         0.0634 
@<TRIPOS>BOND
     1    1    2 1    
     2    1   72 1    
     3    1   73 1    
     4    1   74 1    
     5    2    3 2    
     6    2    4 am   BACKBONE|DICT|INTERRES
     7    4    5 1    
     8    4   75 1    
     9    5    6 1    
    10    5   35 1    
    11    5   76 1    
    12    6    7 1    
    13    6   77 1    
    14    6   78 1    
    15    7    8 1    
    16    8    9 1    
    17    8   79 1    
    18    8   80 1    
    19    9   10 ar   
    20    9   14 ar   
    21   10   11 ar   
    22   10   81 1    
    23   11   12 ar   
    24   11   71 1    
    25   12   13 ar   
    26   12   82 1    
    27   13   14 ar   
    28   13   15 1    
    29   14   83 1    
    30   15   16 1    
    31   15   84 1    
    32   15   85 1    
    33   16   17 1    
    34   17   18 1    
    35   17   86 1    
    36   17   87 1    
    37   18   19 1    
    38   18   37 1    
    39   18   88 1    
    40   19   20 am   BACKBONE|DICT|INTERRES
    41   19   89 1    
    42   20   21 2    
    43   20   22 1    
    44   22   23 1    
    45   22   24 1    
    46   22   90 1    
    47   23   91 1    
    48   23   92 1    
    49   23   93 1    
    50   24   25 am   BACKBONE|DICT|INTERRES
    51   24   94 1    
    52   25   26 2    
    53   25   27 1    
    54   27   28 1    
    55   27   29 1    
    56   27   95 1    
    57   28   96 1    
    58   28   97 1    
    59   28   98 1    
    60   29   30 am   BACKBONE|DICT|INTERRES
    61   29   99 1    
    62   30   31 2    
    63   30   32 1    
    64   32   33 1    
    65   32   34 1    
    66   32  100 1    
    67   33  101 1    
    68   33  102 1    
    69   33  103 1    
    70   34   35 am   BACKBONE|DICT|INTERRES
    71   34  104 1    
    72   35   36 2    
    73   37   38 2    
    74   37   39 am   BACKBONE|DICT|INTERRES
    75   39   40 1    
    76   39  105 1    
    77   40   41 1    
    78   40   42 1    
    79   40  106 1    
    80   41  107 1    
    81   41  108 1    
    82   41  109 1    
    83   42   43 2    
    84   42   44 am   BACKBONE|DICT|INTERRES
    85   44   45 1    
    86   44  110 1    
    87   45   46 1    
    88   45   47 1    
    89   45  111 1    
    90   46  112 1    
    91   46  113 1    
    92   46  114 1    
    93   47   48 2    
    94   47   49 am   BACKBONE|DICT|INTERRES
    95   49   50 1    
    96   49  115 1    
    97   50   51 1    
    98   50   52 1    
    99   50  116 1    
   100   51  117 1    
   101   51  118 1    
   102   51  119 1    
   103   52   53 2    
   104   52   54 am   BACKBONE|DICT|INTERRES
   105   54   55 1    
   106   54  120 1    
   107   55   56 1    
   108   55   57 1    
   109   55  121 1    
   110   56  122 1    
   111   56  123 1    
   112   56  124 1    
   113   57   58 2    
   114   57   59 am   BACKBONE|DICT|INTERRES
   115   59   60 1    
   116   59  125 1    
   117   60   61 1    
   118   60   62 1    
   119   60  126 1    
   120   61  127 1    
   121   61  128 1    
   122   61  129 1    
   123   62   63 2    
   124   62   64 am   BACKBONE|DICT|INTERRES
   125   64   65 1    
   126   64  130 1    
   127   65   66 1    
   128   65   69 1    
   129   65  131 1    
   130   66   67 am   BACKBONE|DICT|INTERRES
   131   66   68 2    
   132   67  132 1    
   133   67  133 1    
   134   69   70 1    
   135   69  134 1    
   136   69  135 1    
   137   70   71 1    
   138   71  136 1    
   139   71  137 1    
@<TRIPOS>SUBSTRUCTURE
     1 UNK         1 GROUP             0       ****    0 ROOT    
