@<TRIPOS>MOLECULE
3R136
137   139    1
SMALL
USER_CHARGES


@<TRIPOS>ATOM
      1 CA         29.0518   27.4801   -3.1141 C.3       0 UNK        -0.1979 
      2 C          28.9599   26.0453   -2.6194 C.2       0 UNK         0.4864 
      3 O          28.5989   25.1546   -3.3902 O.2       0 UNK        -0.5359 
      4 N          29.2615   25.8267   -1.3305 N.am      1 UNK        -0.4318 
      5 CA         29.2497   24.5487   -0.5953 C.3       1 UNK         0.0824 
      6 C6         30.1793   23.4512   -1.1771 C.3       12 UNK        -0.0944 
      7 S7         31.9114   23.9969   -1.3311 S.3       12 UNK        -0.2672 
      8 C8         32.7360   23.0251   -0.0334 C.3       12 UNK         0.0333 
      9 C9         32.5570   23.6264    1.3543 C.ar      12 UNK        -0.0807 
     10 C10        33.2882   24.7619    1.7177 C.ar      12 UNK        -0.0894 
     11 C11        33.2223   25.2647    3.0201 C.ar      12 UNK        -0.0804 
     12 C12        32.4070   24.6284    3.9601 C.ar      12 UNK        -0.0824 
     13 C13        31.6573   23.5013    3.6072 C.ar      12 UNK        -0.0762 
     14 C14        31.7301   23.0086    2.2994 C.ar      12 UNK        -0.0782 
     15 C15        30.8299   22.7750    4.6617 C.3       12 UNK         0.0230 
     16 S16        29.0413   23.0797    4.5038 S.3       12 UNK        -0.2608 
     17 C17        28.9287   24.8772    4.7978 C.3       12 UNK        -0.0989 
     18 CA         28.4117   25.6055    3.5292 C.3       5 UNK         0.0716 
     19 N          27.0182   25.2767    3.1997 N.am      5 UNK        -0.4135 
     20 C          25.9295   25.5817    3.9241 C.2       4 UNK         0.5031 
     21 O          25.9606   26.1941    4.9935 O.2       4 UNK        -0.5229 
     22 CA         24.5736   25.1096    3.3585 C.3       4 UNK         0.0329 
     23 CB         23.3673   25.6478    4.1579 C.3       4 UNK        -0.2001 
     24 N          24.4033   25.3972    1.9300 N.am      4 UNK        -0.4303 
     25 C          24.4783   26.5842    1.3103 C.2       3 UNK         0.5044 
     26 O          24.7148   27.6437    1.8907 O.2       3 UNK        -0.5152 
     27 CA         24.2643   26.5803   -0.2213 C.3       3 UNK         0.0319 
     28 CB         24.6366   27.9275   -0.8704 C.3       3 UNK        -0.2001 
     29 N          25.0148   25.5164   -0.8953 N.am      3 UNK        -0.4354 
     30 C          24.7067   24.2115   -0.9023 C.2       2 UNK         0.4964 
     31 O          23.6909   23.7503   -0.3816 O.2       2 UNK        -0.5047 
     32 CA         25.7291   23.2531   -1.5358 C.3       2 UNK         0.0288 
     33 CB         25.3485   22.9447   -2.9925 C.3       2 UNK        -0.2113 
     34 N          27.1071   23.7512   -1.4926 N.am      2 UNK        -0.4145 
     35 C          27.8222   24.0047   -0.3877 C.2       1 UNK         0.5006 
     36 O          27.3877   23.8615    0.7561 O.2       1 UNK        -0.5103 
     37 C          28.6266   27.1310    3.5684 C.2       5 UNK         0.5055 
     38 O          28.9164   27.6959    4.6237 O.2       5 UNK        -0.5220 
     39 N          28.4685   27.7652    2.4007 N.am      6 UNK        -0.4450 
     40 CA         28.6498   29.2010    2.1952 C.3       6 UNK         0.0367 
     41 CB         27.2842   29.9107    2.2658 C.3       6 UNK        -0.1929 
     42 C          29.3923   29.4517    0.8742 C.2       6 UNK         0.5070 
     43 O          28.9426   30.2543    0.0561 O.2       6 UNK        -0.5237 
     44 N          30.5177   28.7485    0.6722 N.am      7 UNK        -0.4739 
     45 CA         31.4279   28.9808   -0.4601 C.3       7 UNK         0.0276 
     46 CB         32.3748   27.7810   -0.6199 C.3       7 UNK        -0.1927 
     47 C          32.2332   30.2865   -0.3193 C.2       7 UNK         0.5013 
     48 O          32.6292   30.8696   -1.3290 O.2       7 UNK        -0.5193 
     49 N          32.4431   30.7210    0.9260 N.am      8 UNK        -0.4253 
     50 CA         33.0881   31.9603    1.3341 C.3       8 UNK         0.0242 
     51 CB         34.6187   31.7904    1.2935 C.3       8 UNK        -0.2000 
     52 C          32.6066   32.2711    2.7554 C.2       8 UNK         0.4948 
     53 O          32.0702   31.3827    3.4241 O.2       8 UNK        -0.5275 
     54 N          32.8511   33.5027    3.2235 N.am      9 UNK        -0.4246 
     55 CA         32.5339   33.9482    4.5890 C.3       9 UNK         0.0261 
     56 CB         32.8506   35.4461    4.7259 C.3       9 UNK        -0.1959 
     57 C          33.2543   33.1413    5.6878 C.2       9 UNK         0.5033 
     58 O          32.7188   32.9971    6.7876 O.2       9 UNK        -0.5390 
     59 N          34.4318   32.5946    5.3532 N.am      10 UNK        -0.4215 
     60 CA         35.2232   31.6914    6.1898 C.3       10 UNK         0.0240 
     61 CB         36.5989   31.4853    5.5339 C.3       10 UNK        -0.1982 
     62 C          34.5534   30.3303    6.4639 C.2       10 UNK         0.4970 
     63 O          34.9465   29.6677    7.4250 O.2       10 UNK        -0.4916 
     64 N          33.5752   29.9282    5.6384 N.am      11 UNK        -0.4279 
     65 CA         32.8107   28.6832    5.8158 C.3       11 UNK         0.1003 
     66 C          31.7725   28.7324    6.9747 C.2       11 UNK         0.5709 
     67 N          31.4394   29.8957    7.5248 N.am      11 UNK        -0.7358 
     68 O          31.2817   27.6898    7.4006 O.2       11 UNK        -0.4999 
     69 C69        32.1470   28.2039    4.4978 C.3       12 UNK        -0.0954 
     70 S70        33.3073   28.0514    3.1006 S.3       12 UNK        -0.2268 
     71 C71        34.0940   26.4446    3.4282 C.3       12 UNK         0.0203 
     72 H72        28.3565   27.6435   -3.9374 H         1 UNK         0.0888 
     73 H73        28.8040   28.1904   -2.3253 H         1 UNK         0.0888 
     74 H74        30.0591   27.6909   -3.4725 H         1 UNK         0.0888 
     75 H75        29.5568   26.6195   -0.7804 H         1 UNK         0.3017 
     76 H76        29.6326   24.7846    0.3986 H         1 UNK         0.0873 
     77 H77        29.8435   23.1378   -2.1669 H         1 UNK         0.0745 
     78 H78        30.1408   22.5552   -0.5548 H         1 UNK         0.0745 
     79 H79        33.8019   22.9838   -0.2625 H         1 UNK         0.0705 
     80 H80        32.3867   21.9919   -0.0634 H         1 UNK         0.0705 
     81 H81        33.9369   25.2343    0.9925 H         1 UNK         0.1334 
     82 H82        32.3781   24.9957    4.9768 H         1 UNK         0.1417 
     83 H83        31.1710   22.1222    2.0316 H         1 UNK         0.1562 
     84 H84        31.1509   23.0565    5.6660 H         1 UNK         0.0748 
     85 H85        31.0086   21.7018    4.5807 H         1 UNK         0.0748 
     86 H86        29.9066   25.2578    5.0945 H         1 UNK         0.0940 
     87 H87        28.2752   25.0592    5.6522 H         1 UNK         0.0940 
     88 H88        29.0149   25.2500    2.6927 H         1 UNK         0.0703 
     89 H89        26.9001   24.7452    2.3402 H         1 UNK         0.3081 
     90 H90        24.5711   24.0227    3.4530 H         1 UNK         0.0719 
     91 H91        23.3226   26.7373    4.1360 H         1 UNK         0.0809 
     92 H92        23.4237   25.3451    5.2043 H         1 UNK         0.0809 
     93 H93        22.4264   25.2655    3.7623 H         1 UNK         0.0809 
     94 H94        24.1902   24.5976    1.3415 H         1 UNK         0.2990 
     95 H95        23.1988   26.4116   -0.3911 H         1 UNK         0.0690 
     96 H96        24.4447   27.9183   -1.9436 H         1 UNK         0.0788 
     97 H97        25.6888   28.1724   -0.7185 H         1 UNK         0.0788 
     98 H98        24.0479   28.7428   -0.4475 H         1 UNK         0.0788 
     99 H99        25.8776   25.7925   -1.3393 H         1 UNK         0.2993 
    100 H100       25.6967   22.3226   -0.9648 H         1 UNK         0.0949 
    101 H101       24.3324   22.5525   -3.0573 H         1 UNK         0.0767 
    102 H102       25.3964   23.8363   -3.6192 H         1 UNK         0.0767 
    103 H103       26.0119   22.1952   -3.4249 H         1 UNK         0.0767 
    104 H104       27.5451   23.9848   -2.3820 H         1 UNK         0.3013 
    105 H105       28.1926   27.2335    1.5885 H         1 UNK         0.3121 
    106 H106       29.2857   29.6139    2.9815 H         1 UNK         0.0774 
    107 H107       27.3986   30.9915    2.1748 H         1 UNK         0.0815 
    108 H108       26.6187   29.5826    1.4666 H         1 UNK         0.0815 
    109 H109       26.7848   29.7154    3.2150 H         1 UNK         0.0815 
    110 H110       30.8383   28.1193    1.3957 H         1 UNK         0.2987 
    111 H111       30.8343   29.0704   -1.3714 H         1 UNK         0.0949 
    112 H112       31.8266   26.8469   -0.7190 H         1 UNK         0.0806 
    113 H113       32.9905   27.8895   -1.5138 H         1 UNK         0.0806 
    114 H114       33.0532   27.6796    0.2264 H         1 UNK         0.0806 
    115 H115       32.0610   30.1972    1.7048 H         1 UNK         0.3010 
    116 H116       32.7768   32.7688    0.6692 H         1 UNK         0.0829 
    117 H117       34.9638   31.5453    0.2889 H         1 UNK         0.0813 
    118 H118       35.1287   32.7068    1.5918 H         1 UNK         0.0813 
    119 H119       34.9517   30.9946    1.9618 H         1 UNK         0.0813 
    120 H120       33.2927   34.1788    2.6160 H         1 UNK         0.3038 
    121 H121       31.4610   33.8097    4.7390 H         1 UNK         0.0769 
    122 H122       33.9083   35.6537    4.5592 H         1 UNK         0.0811 
    123 H123       32.6015   35.8073    5.7250 H         1 UNK         0.0811 
    124 H124       32.2743   36.0409    4.0169 H         1 UNK         0.0811 
    125 H125       34.7882   32.7796    4.4275 H         1 UNK         0.3204 
    126 H126       35.3718   32.1785    7.1559 H         1 UNK         0.0748 
    127 H127       37.2329   30.8442    6.1482 H         1 UNK         0.0771 
    128 H128       36.5123   31.0141    4.5538 H         1 UNK         0.0771 
    129 H129       37.1259   32.4314    5.4081 H         1 UNK         0.0771 
    130 H130       33.2703   30.5238    4.8770 H         1 UNK         0.2980 
    131 H131       33.5251   27.9111    6.1058 H         1 UNK         0.0545 
    132 H132       31.8477   30.7585    7.1950 H         1 UNK         0.3459 
    133 H133       30.7728   29.9094    8.2800 H         1 UNK         0.3459 
    134 H134       31.3668   28.9055    4.2006 H         1 UNK         0.0616 
    135 H135       31.6465   27.2468    4.6431 H         1 UNK         0.0616 
    136 H136       34.3655   26.3738    4.4820 H         1 UNK         0.0634 
    137 H137       35.0345   26.4072    2.8765 H         1 UNK         0.0634 
@<TRIPOS>BOND
     1    1    2 1    
     2    1   72 1    
     3    1   73 1    
     4    1   74 1    
     5    2    3 2    
     6    2    4 am   BACKBONE|DICT|INTERRES
     7    4    5 1    
     8    4   75 1    
     9    5    6 1    
    10    5   35 1    
    11    5   76 1    
    12    6    7 1    
    13    6   77 1    
    14    6   78 1    
    15    7    8 1    
    16    8    9 1    
    17    8   79 1    
    18    8   80 1    
    19    9   10 ar   
    20    9   14 ar   
    21   10   11 ar   
    22   10   81 1    
    23   11   12 ar   
    24   11   71 1    
    25   12   13 ar   
    26   12   82 1    
    27   13   14 ar   
    28   13   15 1    
    29   14   83 1    
    30   15   16 1    
    31   15   84 1    
    32   15   85 1    
    33   16   17 1    
    34   17   18 1    
    35   17   86 1    
    36   17   87 1    
    37   18   19 1    
    38   18   37 1    
    39   18   88 1    
    40   19   20 am   BACKBONE|DICT|INTERRES
    41   19   89 1    
    42   20   21 2    
    43   20   22 1    
    44   22   23 1    
    45   22   24 1    
    46   22   90 1    
    47   23   91 1    
    48   23   92 1    
    49   23   93 1    
    50   24   25 am   BACKBONE|DICT|INTERRES
    51   24   94 1    
    52   25   26 2    
    53   25   27 1    
    54   27   28 1    
    55   27   29 1    
    56   27   95 1    
    57   28   96 1    
    58   28   97 1    
    59   28   98 1    
    60   29   30 am   BACKBONE|DICT|INTERRES
    61   29   99 1    
    62   30   31 2    
    63   30   32 1    
    64   32   33 1    
    65   32   34 1    
    66   32  100 1    
    67   33  101 1    
    68   33  102 1    
    69   33  103 1    
    70   34   35 am   BACKBONE|DICT|INTERRES
    71   34  104 1    
    72   35   36 2    
    73   37   38 2    
    74   37   39 am   BACKBONE|DICT|INTERRES
    75   39   40 1    
    76   39  105 1    
    77   40   41 1    
    78   40   42 1    
    79   40  106 1    
    80   41  107 1    
    81   41  108 1    
    82   41  109 1    
    83   42   43 2    
    84   42   44 am   BACKBONE|DICT|INTERRES
    85   44   45 1    
    86   44  110 1    
    87   45   46 1    
    88   45   47 1    
    89   45  111 1    
    90   46  112 1    
    91   46  113 1    
    92   46  114 1    
    93   47   48 2    
    94   47   49 am   BACKBONE|DICT|INTERRES
    95   49   50 1    
    96   49  115 1    
    97   50   51 1    
    98   50   52 1    
    99   50  116 1    
   100   51  117 1    
   101   51  118 1    
   102   51  119 1    
   103   52   53 2    
   104   52   54 am   BACKBONE|DICT|INTERRES
   105   54   55 1    
   106   54  120 1    
   107   55   56 1    
   108   55   57 1    
   109   55  121 1    
   110   56  122 1    
   111   56  123 1    
   112   56  124 1    
   113   57   58 2    
   114   57   59 am   BACKBONE|DICT|INTERRES
   115   59   60 1    
   116   59  125 1    
   117   60   61 1    
   118   60   62 1    
   119   60  126 1    
   120   61  127 1    
   121   61  128 1    
   122   61  129 1    
   123   62   63 2    
   124   62   64 am   BACKBONE|DICT|INTERRES
   125   64   65 1    
   126   64  130 1    
   127   65   66 1    
   128   65   69 1    
   129   65  131 1    
   130   66   67 am   BACKBONE|DICT|INTERRES
   131   66   68 2    
   132   67  132 1    
   133   67  133 1    
   134   69   70 1    
   135   69  134 1    
   136   69  135 1    
   137   70   71 1    
   138   71  136 1    
   139   71  137 1    
@<TRIPOS>SUBSTRUCTURE
     1 UNK         1 GROUP             0       ****    0 ROOT    
