@<TRIPOS>MOLECULE
3R136
137   139    1
SMALL
USER_CHARGES


@<TRIPOS>ATOM
      1 CA         27.7273   22.9253   -2.8028 C.3       0 UNK        -0.1979 
      2 C          28.3405   23.0898   -1.4212 C.2       0 UNK         0.4864 
      3 O          28.2271   24.1681   -0.8339 O.2       0 UNK        -0.5359 
      4 N          28.9833   22.0322   -0.9019 N.am      1 UNK        -0.4318 
      5 CA         29.6477   21.9632    0.4078 C.3       1 UNK         0.0824 
      6 C6         30.5957   20.7348    0.5035 C.3       12 UNK        -0.0944 
      7 S7         32.1627   21.0106   -0.3892 S.3       12 UNK        -0.2672 
      8 C8         33.2720   21.5060    0.9760 C.3       12 UNK         0.0333 
      9 C9         32.8150   22.8104    1.6135 C.ar      12 UNK        -0.0807 
     10 C10        32.0288   22.7966    2.7698 C.ar      12 UNK        -0.0894 
     11 C11        31.5069   23.9842    3.2895 C.ar      12 UNK        -0.0804 
     12 C12        31.8035   25.1973    2.6614 C.ar      12 UNK        -0.0824 
     13 C13        32.6260   25.2276    1.5303 C.ar      12 UNK        -0.0762 
     14 C14        33.1320   24.0313    1.0137 C.ar      12 UNK        -0.0782 
     15 C15        32.9404   26.5497    0.8440 C.3       12 UNK         0.0230 
     16 S16        32.3084   26.6142   -0.8677 S.3       12 UNK        -0.2608 
     17 C17        30.5237   26.2963   -0.6365 C.3       12 UNK        -0.0989 
     18 CA         29.6342   27.5614   -0.6537 C.3       5 UNK         0.0716 
     19 N          28.2149   27.2079   -0.6589 N.am      5 UNK        -0.4135 
     20 C          27.2361   28.0250   -1.0685 C.2       4 UNK         0.5031 
     21 O          27.4276   29.1362   -1.5635 O.2       4 UNK        -0.5229 
     22 CA         25.7940   27.5291   -0.8658 C.3       4 UNK         0.0329 
     23 CB         25.4362   26.4367   -1.8873 C.3       4 UNK        -0.2001 
     24 N          25.5421   27.0383    0.4923 N.am      4 UNK        -0.4303 
     25 C          25.6641   27.7705    1.6104 C.2       3 UNK         0.5044 
     26 O          25.9919   28.9553    1.6228 O.2       3 UNK        -0.5152 
     27 CA         25.3959   27.0631    2.9513 C.3       3 UNK         0.0319 
     28 CB         23.9232   27.2326    3.3569 C.3       3 UNK        -0.2001 
     29 N          25.7416   25.6383    2.9724 N.am      3 UNK        -0.4354 
     30 C          26.9408   25.1136    2.6842 C.2       2 UNK         0.4964 
     31 O          27.9169   25.7874    2.3365 O.2       2 UNK        -0.5047 
     32 CA         27.0612   23.5820    2.7592 C.3       2 UNK         0.0288 
     33 CB         25.7177   22.8416    2.5592 C.3       2 UNK        -0.2113 
     34 N          28.0198   23.1897    1.7384 N.am      2 UNK        -0.4145 
     35 C          28.6390   22.0202    1.5785 C.2       1 UNK         0.5006 
     36 O          28.4455   21.0354    2.2947 O.2       1 UNK        -0.5103 
     37 C          29.9656   28.5202    0.5070 C.2       5 UNK         0.5055 
     38 O          30.7106   29.4766    0.2946 O.2       5 UNK        -0.5220 
     39 N          29.4338   28.2466    1.7100 N.am      6 UNK        -0.4450 
     40 CA         29.7687   28.9802    2.9355 C.3       6 UNK         0.0367 
     41 CB         29.2209   28.2299    4.1584 C.3       6 UNK        -0.1929 
     42 C          29.3163   30.4518    2.9627 C.2       6 UNK         0.5070 
     43 O          29.9069   31.2268    3.7175 O.2       6 UNK        -0.5237 
     44 N          28.2998   30.8181    2.1676 N.am      7 UNK        -0.4739 
     45 CA         27.7469   32.1716    2.0285 C.3       7 UNK         0.0276 
     46 CB         26.6895   32.1746    0.9106 C.3       7 UNK        -0.1927 
     47 C          28.8227   33.2440    1.7666 C.2       7 UNK         0.5013 
     48 O          29.3564   33.3166    0.6583 O.2       7 UNK        -0.5193 
     49 N          29.1299   34.0260    2.8130 N.am      8 UNK        -0.4253 
     50 CA         30.1574   35.0747    2.8830 C.3       8 UNK         0.0242 
     51 CB         29.8317   36.2326    1.9142 C.3       8 UNK        -0.2000 
     52 C          31.6079   34.5645    2.7290 C.2       8 UNK         0.4948 
     53 O          32.4955   35.3685    2.4368 O.2       8 UNK        -0.5275 
     54 N          31.8353   33.2612    2.9442 N.am      9 UNK        -0.4246 
     55 CA         33.1462   32.6093    2.8437 C.3       9 UNK         0.0261 
     56 CB         33.1809   31.7406    1.5761 C.3       9 UNK        -0.1959 
     57 C          33.4891   31.7580    4.0773 C.2       9 UNK         0.5033 
     58 O          34.6765   31.5930    4.3615 O.2       9 UNK        -0.5390 
     59 N          32.4626   31.2445    4.7743 N.am      10 UNK        -0.4215 
     60 CA         32.4864   30.2818    5.8824 C.3       10 UNK         0.0240 
     61 CB         33.3937   30.7450    7.0415 C.3       10 UNK        -0.1982 
     62 C          32.8294   28.8522    5.4231 C.2       10 UNK         0.4970 
     63 O          33.4376   28.6501    4.3703 O.2       10 UNK        -0.4916 
     64 N          32.4007   27.8768    6.2293 N.am      11 UNK        -0.4279 
     65 CA         32.6884   26.4510    6.0414 C.3       11 UNK         0.1003 
     66 C          34.0649   26.0790    6.6545 C.2       11 UNK         0.5709 
     67 N          34.8420   25.2395    5.9840 N.am      11 UNK        -0.7358 
     68 O          34.4208   26.5269    7.7435 O.2       11 UNK        -0.4999 
     69 C69        31.5262   25.5982    6.6106 C.3       12 UNK        -0.0954 
     70 S70        31.5400   23.8609    6.0542 S.3       12 UNK        -0.2268 
     71 C71        30.5906   23.9360    4.5029 C.3       12 UNK         0.0203 
     72 H72        28.1251   23.6813   -3.4793 H         1 UNK         0.0888 
     73 H73        27.9362   21.9442   -3.2287 H         1 UNK         0.0888 
     74 H74        26.6464   23.0509   -2.7490 H         1 UNK         0.0888 
     75 H75        29.0268   21.1808   -1.4432 H         1 UNK         0.3017 
     76 H76        30.2546   22.8661    0.5014 H         1 UNK         0.0873 
     77 H77        30.8418   20.4892    1.5376 H         1 UNK         0.0745 
     78 H78        30.1115   19.8422    0.1039 H         1 UNK         0.0745 
     79 H79        34.2848   21.6208    0.5870 H         1 UNK         0.0705 
     80 H80        33.3187   20.7081    1.7189 H         1 UNK         0.0705 
     81 H81        31.7858   21.8562    3.2454 H         1 UNK         0.1334 
     82 H82        31.3886   26.1177    3.0473 H         1 UNK         0.1417 
     83 H83        33.7383   24.0487    0.1179 H         1 UNK         0.1562 
     84 H84        34.0218   26.6905    0.8249 H         1 UNK         0.0748 
     85 H85        32.5372   27.3900    1.4113 H         1 UNK         0.0748 
     86 H86        30.3431   25.7095    0.2646 H         1 UNK         0.0940 
     87 H87        30.2320   25.6502   -1.4649 H         1 UNK         0.0940 
     88 H88        29.8455   28.0950   -1.5834 H         1 UNK         0.0703 
     89 H89        27.9776   26.2842   -0.3161 H         1 UNK         0.3081 
     90 H90        25.1293   28.3793   -1.0332 H         1 UNK         0.0719 
     91 H91        26.0255   25.5314   -1.7392 H         1 UNK         0.0809 
     92 H92        24.3826   26.1644   -1.8236 H         1 UNK         0.0809 
     93 H93        25.6188   26.7808   -2.9063 H         1 UNK         0.0809 
     94 H94        25.2718   26.0706    0.5857 H         1 UNK         0.2990 
     95 H95        26.0076   27.5561    3.7070 H         1 UNK         0.0690 
     96 H96        23.2513   26.7274    2.6617 H         1 UNK         0.0788 
     97 H97        23.6421   28.2867    3.3738 H         1 UNK         0.0788 
     98 H98        23.7369   26.8350    4.3548 H         1 UNK         0.0788 
     99 H99        25.0005   25.0036    3.2327 H         1 UNK         0.2993 
    100 H100       27.4725   23.3305    3.7383 H         1 UNK         0.0949 
    101 H101       25.2466   23.1095    1.6123 H         1 UNK         0.0767 
    102 H102       25.8535   21.7602    2.5617 H         1 UNK         0.0767 
    103 H103       25.0131   23.0631    3.3614 H         1 UNK         0.0767 
    104 H104       28.2234   23.9170    1.0558 H         1 UNK         0.3013 
    105 H105       28.8331   27.4326    1.8151 H         1 UNK         0.3121 
    106 H106       30.8580   28.9879    3.0122 H         1 UNK         0.0774 
    107 H107       29.5194   28.7204    5.0856 H         1 UNK         0.0815 
    108 H108       28.1331   28.1927    4.1487 H         1 UNK         0.0815 
    109 H109       29.5909   27.2067    4.2009 H         1 UNK         0.0815 
    110 H110       27.8364   30.0945    1.6301 H         1 UNK         0.2987 
    111 H111       27.2393   32.4114    2.9648 H         1 UNK         0.0949 
    112 H112       27.0989   31.8072   -0.0317 H         1 UNK         0.0806 
    113 H113       25.8346   31.5507    1.1696 H         1 UNK         0.0806 
    114 H114       26.3085   33.1810    0.7320 H         1 UNK         0.0806 
    115 H115       28.6520   33.8422    3.6851 H         1 UNK         0.3010 
    116 H116       30.0991   35.4760    3.8959 H         1 UNK         0.0829 
    117 H117       30.4944   37.0827    2.0812 H         1 UNK         0.0813 
    118 H118       29.9469   35.9334    0.8720 H         1 UNK         0.0813 
    119 H119       28.8111   36.5900    2.0504 H         1 UNK         0.0813 
    120 H120       31.0414   32.6679    3.1672 H         1 UNK         0.3038 
    121 H121       33.9332   33.3617    2.7595 H         1 UNK         0.0769 
    122 H122       34.1566   31.2696    1.4499 H         1 UNK         0.0811 
    123 H123       32.9851   32.3323    0.6819 H         1 UNK         0.0811 
    124 H124       32.4383   30.9439    1.6197 H         1 UNK         0.0811 
    125 H125       31.5258   31.4003    4.4066 H         1 UNK         0.3204 
    126 H126       31.4606   30.2596    6.2545 H         1 UNK         0.0748 
    127 H127       33.2499   30.1209    7.9241 H         1 UNK         0.0771 
    128 H128       34.4511   30.6885    6.7817 H         1 UNK         0.0771 
    129 H129       33.1733   31.7720    7.3328 H         1 UNK         0.0771 
    130 H130       31.9506   28.1208    7.0991 H         1 UNK         0.2980 
    131 H131       32.7437   26.2634    4.9698 H         1 UNK         0.0545 
    132 H132       35.7344   24.9790    6.3730 H         1 UNK         0.3459 
    133 H133       34.5427   24.8472    5.1049 H         1 UNK         0.3459 
    134 H134       30.5662   26.0346    6.3312 H         1 UNK         0.0616 
    135 H135       31.5434   25.6077    7.7020 H         1 UNK         0.0616 
    136 H136       29.9618   23.0465    4.4424 H         1 UNK         0.0634 
    137 H137       29.9051   24.7840    4.5049 H         1 UNK         0.0634 
@<TRIPOS>BOND
     1    1    2 1    
     2    1   72 1    
     3    1   73 1    
     4    1   74 1    
     5    2    3 2    
     6    2    4 am   BACKBONE|DICT|INTERRES
     7    4    5 1    
     8    4   75 1    
     9    5    6 1    
    10    5   35 1    
    11    5   76 1    
    12    6    7 1    
    13    6   77 1    
    14    6   78 1    
    15    7    8 1    
    16    8    9 1    
    17    8   79 1    
    18    8   80 1    
    19    9   10 ar   
    20    9   14 ar   
    21   10   11 ar   
    22   10   81 1    
    23   11   12 ar   
    24   11   71 1    
    25   12   13 ar   
    26   12   82 1    
    27   13   14 ar   
    28   13   15 1    
    29   14   83 1    
    30   15   16 1    
    31   15   84 1    
    32   15   85 1    
    33   16   17 1    
    34   17   18 1    
    35   17   86 1    
    36   17   87 1    
    37   18   19 1    
    38   18   37 1    
    39   18   88 1    
    40   19   20 am   BACKBONE|DICT|INTERRES
    41   19   89 1    
    42   20   21 2    
    43   20   22 1    
    44   22   23 1    
    45   22   24 1    
    46   22   90 1    
    47   23   91 1    
    48   23   92 1    
    49   23   93 1    
    50   24   25 am   BACKBONE|DICT|INTERRES
    51   24   94 1    
    52   25   26 2    
    53   25   27 1    
    54   27   28 1    
    55   27   29 1    
    56   27   95 1    
    57   28   96 1    
    58   28   97 1    
    59   28   98 1    
    60   29   30 am   BACKBONE|DICT|INTERRES
    61   29   99 1    
    62   30   31 2    
    63   30   32 1    
    64   32   33 1    
    65   32   34 1    
    66   32  100 1    
    67   33  101 1    
    68   33  102 1    
    69   33  103 1    
    70   34   35 am   BACKBONE|DICT|INTERRES
    71   34  104 1    
    72   35   36 2    
    73   37   38 2    
    74   37   39 am   BACKBONE|DICT|INTERRES
    75   39   40 1    
    76   39  105 1    
    77   40   41 1    
    78   40   42 1    
    79   40  106 1    
    80   41  107 1    
    81   41  108 1    
    82   41  109 1    
    83   42   43 2    
    84   42   44 am   BACKBONE|DICT|INTERRES
    85   44   45 1    
    86   44  110 1    
    87   45   46 1    
    88   45   47 1    
    89   45  111 1    
    90   46  112 1    
    91   46  113 1    
    92   46  114 1    
    93   47   48 2    
    94   47   49 am   BACKBONE|DICT|INTERRES
    95   49   50 1    
    96   49  115 1    
    97   50   51 1    
    98   50   52 1    
    99   50  116 1    
   100   51  117 1    
   101   51  118 1    
   102   51  119 1    
   103   52   53 2    
   104   52   54 am   BACKBONE|DICT|INTERRES
   105   54   55 1    
   106   54  120 1    
   107   55   56 1    
   108   55   57 1    
   109   55  121 1    
   110   56  122 1    
   111   56  123 1    
   112   56  124 1    
   113   57   58 2    
   114   57   59 am   BACKBONE|DICT|INTERRES
   115   59   60 1    
   116   59  125 1    
   117   60   61 1    
   118   60   62 1    
   119   60  126 1    
   120   61  127 1    
   121   61  128 1    
   122   61  129 1    
   123   62   63 2    
   124   62   64 am   BACKBONE|DICT|INTERRES
   125   64   65 1    
   126   64  130 1    
   127   65   66 1    
   128   65   69 1    
   129   65  131 1    
   130   66   67 am   BACKBONE|DICT|INTERRES
   131   66   68 2    
   132   67  132 1    
   133   67  133 1    
   134   69   70 1    
   135   69  134 1    
   136   69  135 1    
   137   70   71 1    
   138   71  136 1    
   139   71  137 1    
@<TRIPOS>SUBSTRUCTURE
     1 UNK         1 GROUP             0       ****    0 ROOT    
