@<TRIPOS>MOLECULE
3R136
137   139    1
SMALL
USER_CHARGES


@<TRIPOS>ATOM
      1 CA         25.2285   21.2949    1.7397 C.3       0 UNK        -0.1979 
      2 C          26.1722   22.3389    1.1615 C.2       0 UNK         0.4864 
      3 O          26.0220   23.5234    1.4609 O.2       0 UNK        -0.5359 
      4 N          27.1405   21.9035    0.3415 N.am      1 UNK        -0.4318 
      5 CA         28.1174   22.7425   -0.3645 C.3       1 UNK         0.0824 
      6 C6         29.0482   23.5181    0.6125 C.3       12 UNK        -0.0944 
      7 S7         30.6731   23.9290   -0.1113 S.3       12 UNK        -0.2672 
      8 C8         31.8098   22.9209    0.8963 C.3       12 UNK         0.0333 
      9 C9         32.1542   23.6218    2.2020 C.ar      12 UNK        -0.0807 
     10 C10        33.1980   24.5523    2.2378 C.ar      12 UNK        -0.0894 
     11 C11        33.4957   25.2469    3.4147 C.ar      12 UNK        -0.0804 
     12 C12        32.7412   24.9932    4.5626 C.ar      12 UNK        -0.0824 
     13 C13        31.6936   24.0680    4.5405 C.ar      12 UNK        -0.0762 
     14 C14        31.4175   23.3678    3.3631 C.ar      12 UNK        -0.0782 
     15 C15        30.8284   23.8727    5.7792 C.3       12 UNK         0.0230 
     16 S16        29.1828   24.6508    5.6114 S.3       12 UNK        -0.2608 
     17 C17        29.5857   26.3050    4.9485 C.3       12 UNK        -0.0989 
     18 CA         29.2549   26.3784    3.4348 C.3       5 UNK         0.0716 
     19 N          27.8143   26.5896    3.2318 N.am      5 UNK        -0.4135 
     20 C          27.1787   26.7951    2.0706 C.2       4 UNK         0.5031 
     21 O          27.7370   26.8274    0.9688 O.2       4 UNK        -0.5229 
     22 CA         25.6640   27.0277    2.1538 C.3       4 UNK         0.0329 
     23 CB         25.3413   28.4292    2.6999 C.3       4 UNK        -0.2001 
     24 N          25.1361   26.9013    0.8038 N.am      4 UNK        -0.4303 
     25 C          23.9952   26.3240    0.4261 C.2       3 UNK         0.5044 
     26 O          23.1080   25.9819    1.2092 O.2       3 UNK        -0.5152 
     27 CA         23.8201   26.0449   -1.0816 C.3       3 UNK         0.0319 
     28 CB         23.0486   27.1833   -1.7778 C.3       3 UNK        -0.2001 
     29 N          25.0746   25.7179   -1.7838 N.am      3 UNK        -0.4354 
     30 C          26.1224   26.5074   -2.0652 C.2       2 UNK         0.4964 
     31 O          26.1506   27.7151   -1.8259 O.2       2 UNK        -0.5047 
     32 CA         27.3728   25.8070   -2.6332 C.3       2 UNK         0.0288 
     33 CB         28.4901   26.8021   -3.0017 C.3       2 UNK        -0.2113 
     34 N          27.9151   24.8321   -1.6819 N.am      2 UNK        -0.4145 
     35 C          27.4195   23.6112   -1.4416 C.2       1 UNK         0.5006 
     36 O          26.4451   23.1565   -2.0497 O.2       1 UNK        -0.5103 
     37 C          30.1067   27.4443    2.7155 C.2       5 UNK         0.5055 
     38 O          30.2160   28.5672    3.2094 O.2       5 UNK        -0.5220 
     39 N          30.6288   27.0858    1.5306 N.am      6 UNK        -0.4450 
     40 CA         31.3167   27.9486    0.5594 C.3       6 UNK         0.0367 
     41 CB         32.7611   28.2242    1.0127 C.3       6 UNK        -0.1929 
     42 C          30.5404   29.2363    0.2121 C.2       6 UNK         0.5070 
     43 O          31.1462   30.2968    0.0509 O.2       6 UNK        -0.5237 
     44 N          29.2054   29.1282    0.1610 N.am      7 UNK        -0.4739 
     45 CA         28.1903   30.1636   -0.0705 C.3       7 UNK         0.0276 
     46 CB         28.3368   30.7792   -1.4750 C.3       7 UNK        -0.1927 
     47 C          28.0971   31.2639    1.0069 C.2       7 UNK         0.5013 
     48 O          26.9919   31.7479    1.2543 O.2       7 UNK        -0.5193 
     49 N          29.2247   31.6551    1.6139 N.am      8 UNK        -0.4253 
     50 CA         29.3366   32.7996    2.5211 C.3       8 UNK         0.0242 
     51 CB         29.7407   34.0461    1.7080 C.3       8 UNK        -0.2000 
     52 C          30.2747   32.5488    3.7168 C.2       8 UNK         0.4948 
     53 O          30.7826   33.5196    4.2803 O.2       8 UNK        -0.5275 
     54 N          30.4761   31.2792    4.1078 N.am      9 UNK        -0.4246 
     55 CA         31.2583   30.8317    5.2719 C.3       9 UNK         0.0261 
     56 CB         30.5835   31.2692    6.5903 C.3       9 UNK        -0.1959 
     57 C          32.7446   31.2298    5.1908 C.2       9 UNK         0.5033 
     58 O          33.2838   31.8202    6.1287 O.2       9 UNK        -0.5390 
     59 N          33.3798   30.8984    4.0576 N.am      10 UNK        -0.4215 
     60 CA         34.7933   31.1820    3.7785 C.3       10 UNK         0.0240 
     61 CB         35.0782   30.9252    2.2895 C.3       10 UNK        -0.1982 
     62 C          35.7812   30.3865    4.6554 C.2       10 UNK         0.4970 
     63 O          36.8941   30.8608    4.8861 O.2       10 UNK        -0.4916 
     64 N          35.3679   29.1981    5.1125 N.am      11 UNK        -0.4279 
     65 CA         36.1210   28.3353    6.0322 C.3       11 UNK         0.1003 
     66 C          36.1282   28.9256    7.4676 C.2       11 UNK         0.5709 
     67 N          37.2857   28.9927    8.1109 N.am      11 UNK        -0.7358 
     68 O          35.0859   29.2782    8.0160 O.2       11 UNK        -0.4999 
     69 C69        35.5528   26.8908    6.0342 C.3       12 UNK        -0.0954 
     70 S70        35.9738   25.9628    4.5188 S.3       12 UNK        -0.2268 
     71 C71        34.5734   26.3251    3.4143 C.3       12 UNK         0.0203 
     72 H72        24.2026   21.5149    1.4457 H         1 UNK         0.0888 
     73 H73        25.4718   20.2893    1.3972 H         1 UNK         0.0888 
     74 H74        25.2810   21.3049    2.8281 H         1 UNK         0.0888 
     75 H75        27.1815   20.9195    0.1150 H         1 UNK         0.3017 
     76 H76        28.7369   22.0380   -0.9217 H         1 UNK         0.0873 
     77 H77        28.5687   24.4241    0.9760 H         1 UNK         0.0745 
     78 H78        29.2141   22.9140    1.5039 H         1 UNK         0.0745 
     79 H79        32.7221   22.7459    0.3240 H         1 UNK         0.0705 
     80 H80        31.3774   21.9366    1.0829 H         1 UNK         0.0705 
     81 H81        33.7586   24.7560    1.3356 H         1 UNK         0.1334 
     82 H82        32.9421   25.5402    5.4707 H         1 UNK         0.1417 
     83 H83        30.6035   22.6564    3.3463 H         1 UNK         0.1562 
     84 H84        31.3228   24.2823    6.6615 H         1 UNK         0.0748 
     85 H85        30.6999   22.8064    5.9707 H         1 UNK         0.0748 
     86 H86        30.6318   26.5330    5.1527 H         1 UNK         0.0940 
     87 H87        29.0255   27.0590    5.5048 H         1 UNK         0.0940 
     88 H88        29.5003   25.4182    2.9794 H         1 UNK         0.0703 
     89 H89        27.2605   26.5784    4.0752 H         1 UNK         0.3081 
     90 H90        25.2285   26.2595    2.7966 H         1 UNK         0.0719 
     91 H91        25.7855   29.2131    2.0853 H         1 UNK         0.0809 
     92 H92        24.2653   28.6013    2.7312 H         1 UNK         0.0809 
     93 H93        25.7184   28.5562    3.7152 H         1 UNK         0.0809 
     94 H94        25.8093   27.1301    0.0775 H         1 UNK         0.2990 
     95 H95        23.2082   25.1446   -1.1559 H         1 UNK         0.0690 
     96 H96        22.8917   26.9685   -2.8347 H         1 UNK         0.0788 
     97 H97        23.5691   28.1382   -1.7015 H         1 UNK         0.0788 
     98 H98        22.0658   27.3170   -1.3240 H         1 UNK         0.0788 
     99 H99        25.2138   24.7272   -1.9628 H         1 UNK         0.2993 
    100 H100       27.0709   25.2866   -3.5447 H         1 UNK         0.0949 
    101 H101       28.8491   27.3466   -2.1274 H         1 UNK         0.0767 
    102 H102       29.3422   26.2930   -3.4525 H         1 UNK         0.0767 
    103 H103       28.1351   27.5399   -3.7225 H         1 UNK         0.0767 
    104 H104       28.6950   25.1412   -1.1180 H         1 UNK         0.3013 
    105 H105       30.4559   26.1420    1.2106 H         1 UNK         0.3121 
    106 H106       31.3688   27.3816   -0.3714 H         1 UNK         0.0774 
    107 H107       33.2836   28.8795    0.3147 H         1 UNK         0.0815 
    108 H108       32.7915   28.6919    1.9956 H         1 UNK         0.0815 
    109 H109       33.3285   27.2977    1.0543 H         1 UNK         0.0815 
    110 H110       28.8107   28.2136    0.3765 H         1 UNK         0.2987 
    111 H111       27.2354   29.6353   -0.0479 H         1 UNK         0.0949 
    112 H112       27.5269   31.4811   -1.6776 H         1 UNK         0.0806 
    113 H113       29.2742   31.3245   -1.5874 H         1 UNK         0.0806 
    114 H114       28.2977   30.0105   -2.2470 H         1 UNK         0.0806 
    115 H115       30.0912   31.2240    1.2996 H         1 UNK         0.3010 
    116 H116       28.3608   32.9972    2.9695 H         1 UNK         0.0829 
    117 H117       29.0319   34.2421    0.9032 H         1 UNK         0.0813 
    118 H118       29.7661   34.9391    2.3339 H         1 UNK         0.0813 
    119 H119       30.7292   33.9284    1.2626 H         1 UNK         0.0813 
    120 H120       30.0534   30.5241    3.5742 H         1 UNK         0.3038 
    121 H121       31.2426   29.7415    5.2587 H         1 UNK         0.0769 
    122 H122       31.1024   30.8469    7.4518 H         1 UNK         0.0811 
    123 H123       29.5491   30.9292    6.6375 H         1 UNK         0.0811 
    124 H124       30.5870   32.3530    6.7104 H         1 UNK         0.0811 
    125 H125       32.8456   30.4523    3.3262 H         1 UNK         0.3204 
    126 H126       34.9616   32.2426    3.9783 H         1 UNK         0.0748 
    127 H127       36.0929   31.2315    2.0314 H         1 UNK         0.0771 
    128 H128       34.9874   29.8688    2.0361 H         1 UNK         0.0771 
    129 H129       34.3990   31.4875    1.6479 H         1 UNK         0.0771 
    130 H130       34.4223   28.9149    4.9146 H         1 UNK         0.2980 
    131 H131       37.1539   28.2933    5.6798 H         1 UNK         0.0545 
    132 H132       37.3033   29.3580    9.0503 H         1 UNK         0.3459 
    133 H133       38.1440   28.6957    7.6729 H         1 UNK         0.3459 
    134 H134       34.4755   26.9033    6.1946 H         1 UNK         0.0616 
    135 H135       35.9713   26.3194    6.8651 H         1 UNK         0.0616 
    136 H136       34.1196   27.2811    3.6709 H         1 UNK         0.0634 
    137 H137       34.9857   26.4459    2.4121 H         1 UNK         0.0634 
@<TRIPOS>BOND
     1    1    2 1    
     2    1   72 1    
     3    1   73 1    
     4    1   74 1    
     5    2    3 2    
     6    2    4 am   BACKBONE|DICT|INTERRES
     7    4    5 1    
     8    4   75 1    
     9    5    6 1    
    10    5   35 1    
    11    5   76 1    
    12    6    7 1    
    13    6   77 1    
    14    6   78 1    
    15    7    8 1    
    16    8    9 1    
    17    8   79 1    
    18    8   80 1    
    19    9   10 ar   
    20    9   14 ar   
    21   10   11 ar   
    22   10   81 1    
    23   11   12 ar   
    24   11   71 1    
    25   12   13 ar   
    26   12   82 1    
    27   13   14 ar   
    28   13   15 1    
    29   14   83 1    
    30   15   16 1    
    31   15   84 1    
    32   15   85 1    
    33   16   17 1    
    34   17   18 1    
    35   17   86 1    
    36   17   87 1    
    37   18   19 1    
    38   18   37 1    
    39   18   88 1    
    40   19   20 am   BACKBONE|DICT|INTERRES
    41   19   89 1    
    42   20   21 2    
    43   20   22 1    
    44   22   23 1    
    45   22   24 1    
    46   22   90 1    
    47   23   91 1    
    48   23   92 1    
    49   23   93 1    
    50   24   25 am   BACKBONE|DICT|INTERRES
    51   24   94 1    
    52   25   26 2    
    53   25   27 1    
    54   27   28 1    
    55   27   29 1    
    56   27   95 1    
    57   28   96 1    
    58   28   97 1    
    59   28   98 1    
    60   29   30 am   BACKBONE|DICT|INTERRES
    61   29   99 1    
    62   30   31 2    
    63   30   32 1    
    64   32   33 1    
    65   32   34 1    
    66   32  100 1    
    67   33  101 1    
    68   33  102 1    
    69   33  103 1    
    70   34   35 am   BACKBONE|DICT|INTERRES
    71   34  104 1    
    72   35   36 2    
    73   37   38 2    
    74   37   39 am   BACKBONE|DICT|INTERRES
    75   39   40 1    
    76   39  105 1    
    77   40   41 1    
    78   40   42 1    
    79   40  106 1    
    80   41  107 1    
    81   41  108 1    
    82   41  109 1    
    83   42   43 2    
    84   42   44 am   BACKBONE|DICT|INTERRES
    85   44   45 1    
    86   44  110 1    
    87   45   46 1    
    88   45   47 1    
    89   45  111 1    
    90   46  112 1    
    91   46  113 1    
    92   46  114 1    
    93   47   48 2    
    94   47   49 am   BACKBONE|DICT|INTERRES
    95   49   50 1    
    96   49  115 1    
    97   50   51 1    
    98   50   52 1    
    99   50  116 1    
   100   51  117 1    
   101   51  118 1    
   102   51  119 1    
   103   52   53 2    
   104   52   54 am   BACKBONE|DICT|INTERRES
   105   54   55 1    
   106   54  120 1    
   107   55   56 1    
   108   55   57 1    
   109   55  121 1    
   110   56  122 1    
   111   56  123 1    
   112   56  124 1    
   113   57   58 2    
   114   57   59 am   BACKBONE|DICT|INTERRES
   115   59   60 1    
   116   59  125 1    
   117   60   61 1    
   118   60   62 1    
   119   60  126 1    
   120   61  127 1    
   121   61  128 1    
   122   61  129 1    
   123   62   63 2    
   124   62   64 am   BACKBONE|DICT|INTERRES
   125   64   65 1    
   126   64  130 1    
   127   65   66 1    
   128   65   69 1    
   129   65  131 1    
   130   66   67 am   BACKBONE|DICT|INTERRES
   131   66   68 2    
   132   67  132 1    
   133   67  133 1    
   134   69   70 1    
   135   69  134 1    
   136   69  135 1    
   137   70   71 1    
   138   71  136 1    
   139   71  137 1    
@<TRIPOS>SUBSTRUCTURE
     1 UNK         1 GROUP             0       ****    0 ROOT    
