@<TRIPOS>MOLECULE
3R136
137   139    1
SMALL
USER_CHARGES


@<TRIPOS>ATOM
      1 CA         27.0780   24.5643   -4.6855 C.3       0 UNK        -0.1979 
      2 C          27.5208   24.9680   -3.2882 C.2       0 UNK         0.4864 
      3 O          26.6883   25.3869   -2.4798 O.2       0 UNK        -0.5359 
      4 N          28.8213   24.8274   -2.9840 N.am      1 UNK        -0.4318 
      5 CA         29.4242   25.1976   -1.6954 C.3       1 UNK         0.0824 
      6 C6         30.9734   25.0817   -1.7057 C.3       12 UNK        -0.0944 
      7 S7         31.6112   23.3680   -1.5828 S.3       12 UNK        -0.2672 
      8 C8         32.8277   23.4497   -0.2211 C.3       12 UNK         0.0333 
      9 C9         32.3187   24.1132    1.0579 C.ar      12 UNK        -0.0807 
     10 C10        32.8872   25.3202    1.4779 C.ar      12 UNK        -0.0894 
     11 C11        32.4815   25.9246    2.6701 C.ar      12 UNK        -0.0804 
     12 C12        31.4984   25.3125    3.4492 C.ar      12 UNK        -0.0824 
     13 C13        30.9042   24.1156    3.0389 C.ar      12 UNK        -0.0762 
     14 C14        31.3247   23.5150    1.8435 C.ar      12 UNK        -0.0782 
     15 C15        29.8373   23.4615    3.9112 C.3       12 UNK         0.0230 
     16 S16        28.1600   24.1157    3.6043 S.3       12 UNK        -0.2608 
     17 C17        28.1947   25.7545    4.4008 C.3       12 UNK        -0.0989 
     18 CA         28.4067   26.9232    3.4019 C.3       5 UNK         0.0716 
     19 N          27.2970   27.0727    2.4423 N.am      5 UNK        -0.4135 
     20 C          27.2640   27.9617    1.4365 C.2       4 UNK         0.5031 
     21 O          28.1034   28.8548    1.3095 O.2       4 UNK        -0.5229 
     22 CA         26.1149   27.8761    0.4097 C.3       4 UNK         0.0329 
     23 CB         26.4760   28.5749   -0.9156 C.3       4 UNK        -0.2001 
     24 N          25.7046   26.5074    0.0963 N.am      4 UNK        -0.4303 
     25 C          24.7852   25.7967    0.7613 C.2       3 UNK         0.5044 
     26 O          24.2359   26.1846    1.7923 O.2       3 UNK        -0.5152 
     27 CA         24.4385   24.4162    0.1856 C.3       3 UNK         0.0319 
     28 CB         23.5490   24.5484   -1.0619 C.3       3 UNK        -0.2001 
     29 N          25.6640   23.6967   -0.1568 N.am      3 UNK        -0.4354 
     30 C          26.2797   22.8336    0.6629 C.2       2 UNK         0.4964 
     31 O          25.7778   22.4069    1.7034 O.2       2 UNK        -0.5047 
     32 CA         27.6894   22.3527    0.2688 C.3       2 UNK         0.0288 
     33 CB         27.6393   20.9166   -0.2777 C.3       2 UNK        -0.2113 
     34 N          28.3660   23.2075   -0.7085 N.am      2 UNK        -0.4145 
     35 C          28.7820   24.4672   -0.4978 C.2       1 UNK         0.5006 
     36 O          28.6390   25.0725    0.5572 O.2       1 UNK        -0.5103 
     37 C          28.7600   28.2068    4.1840 C.2       5 UNK         0.5055 
     38 O          29.9188   28.3757    4.5608 O.2       5 UNK        -0.5220 
     39 N          27.7708   29.0786    4.4202 N.am      6 UNK        -0.4450 
     40 CA         27.9499   30.3620    5.1024 C.3       6 UNK         0.0367 
     41 CB         26.6165   30.7621    5.7565 C.3       6 UNK        -0.1929 
     42 C          28.4484   31.4893    4.1771 C.2       6 UNK         0.5070 
     43 O          28.8745   32.5249    4.6899 O.2       6 UNK        -0.5237 
     44 N          28.3528   31.3047    2.8527 N.am      7 UNK        -0.4739 
     45 CA         28.6557   32.3269    1.8462 C.3       7 UNK         0.0276 
     46 CB         27.4238   32.5181    0.9467 C.3       7 UNK        -0.1927 
     47 C          29.8867   31.9819    0.9948 C.2       7 UNK         0.5013 
     48 O          30.5457   32.9044    0.5136 O.2       7 UNK        -0.5193 
     49 N          30.1735   30.6840    0.8097 N.am      8 UNK        -0.4253 
     50 CA         31.2838   30.1631    0.0035 C.3       8 UNK         0.0242 
     51 CB         31.2040   28.6271   -0.0368 C.3       8 UNK        -0.2000 
     52 C          32.6720   30.6293    0.4786 C.2       8 UNK         0.4948 
     53 O          33.5149   30.9649   -0.3543 O.2       8 UNK        -0.5275 
     54 N          32.8608   30.6692    1.8010 N.am      9 UNK        -0.4246 
     55 CA         34.0155   31.1879    2.5298 C.3       9 UNK         0.0261 
     56 CB         35.2904   30.3638    2.2448 C.3       9 UNK        -0.1959 
     57 C          33.6529   31.1541    4.0205 C.2       9 UNK         0.5033 
     58 O          32.6031   30.6134    4.3817 O.2       9 UNK        -0.5390 
     59 N          34.5309   31.6938    4.8744 N.am      10 UNK        -0.4215 
     60 CA         34.3975   31.6830    6.3366 C.3       10 UNK         0.0240 
     61 CB         35.2462   32.8276    6.9230 C.3       10 UNK        -0.1982 
     62 C          34.7471   30.3073    6.9477 C.2       10 UNK         0.4970 
     63 O          35.6121   30.2212    7.8218 O.2       10 UNK        -0.4916 
     64 N          34.0884   29.2536    6.4547 N.am      11 UNK        -0.4279 
     65 CA         34.2432   27.8633    6.9007 C.3       11 UNK         0.1003 
     66 C          33.6419   27.6228    8.3123 C.2       11 UNK         0.5709 
     67 N          34.1796   26.6670    9.0581 N.am      11 UNK        -0.7358 
     68 O          32.6765   28.2644    8.7238 O.2       11 UNK        -0.4999 
     69 C69        33.6534   26.8685    5.8674 C.3       12 UNK        -0.0954 
     70 S70        34.4960   26.9763    4.2507 S.3       12 UNK        -0.2268 
     71 C71        33.1046   27.2409    3.1083 C.3       12 UNK         0.0203 
     72 H72        27.9095   24.1988   -5.2877 H         1 UNK         0.0888 
     73 H73        26.3275   23.7765   -4.6272 H         1 UNK         0.0888 
     74 H74        26.6364   25.4184   -5.1980 H         1 UNK         0.0888 
     75 H75        29.4591   24.4617   -3.6772 H         1 UNK         0.3017 
     76 H76        29.1894   26.2553   -1.5578 H         1 UNK         0.0873 
     77 H77        31.3769   25.5335   -2.6131 H         1 UNK         0.0745 
     78 H78        31.3778   25.6807   -0.8903 H         1 UNK         0.0745 
     79 H79        33.1504   22.4348    0.0148 H         1 UNK         0.0705 
     80 H80        33.7153   23.9657   -0.5906 H         1 UNK         0.0705 
     81 H81        33.6573   25.7886    0.8804 H         1 UNK         0.1334 
     82 H82        31.1877   25.7778    4.3731 H         1 UNK         0.1417 
     83 H83        30.8807   22.5829    1.5223 H         1 UNK         0.1562 
     84 H84        30.0894   23.5779    4.9663 H         1 UNK         0.0748 
     85 H85        29.8232   22.3865    3.7258 H         1 UNK         0.0748 
     86 H86        28.9705   25.7426    5.1687 H         1 UNK         0.0940 
     87 H87        27.2548   25.8881    4.9394 H         1 UNK         0.0940 
     88 H88        29.2825   26.6966    2.7922 H         1 UNK         0.0703 
     89 H89        26.5854   26.3565    2.4684 H         1 UNK         0.3081 
     90 H90        25.2669   28.4096    0.8437 H         1 UNK         0.0719 
     91 H91        26.6965   29.6310   -0.7632 H         1 UNK         0.0809 
     92 H92        27.3528   28.1220   -1.3804 H         1 UNK         0.0809 
     93 H93        25.6546   28.5203   -1.6302 H         1 UNK         0.0809 
     94 H94        26.1155   26.1030   -0.7405 H         1 UNK         0.2990 
     95 H95        23.8732   23.8666    0.9413 H         1 UNK         0.0690 
     96 H96        22.6257   25.0794   -0.8264 H         1 UNK         0.0788 
     97 H97        23.2692   23.5696   -1.4516 H         1 UNK         0.0788 
     98 H98        24.0449   25.0969   -1.8636 H         1 UNK         0.0788 
     99 H99        26.1495   24.0074   -0.9906 H         1 UNK         0.2993 
    100 H100       28.2925   22.3529    1.1785 H         1 UNK         0.0949 
    101 H101       28.6402   20.5334   -0.4785 H         1 UNK         0.0767 
    102 H102       27.1744   20.2410    0.4418 H         1 UNK         0.0767 
    103 H103       27.0626   20.8565   -1.2016 H         1 UNK         0.0767 
    104 H104       28.5403   22.8047   -1.6175 H         1 UNK         0.3013 
    105 H105       26.8444   28.8622    4.0819 H         1 UNK         0.3121 
    106 H106       28.6921   30.2423    5.8950 H         1 UNK         0.0774 
    107 H107       26.7179   31.6968    6.3098 H         1 UNK         0.0815 
    108 H108       25.8296   30.9072    5.0152 H         1 UNK         0.0815 
    109 H109       26.2780   30.0053    6.4643 H         1 UNK         0.0815 
    110 H110       28.0539   30.4004    2.5014 H         1 UNK         0.2987 
    111 H111       28.8655   33.2847    2.3276 H         1 UNK         0.0949 
    112 H112       27.1512   31.5952    0.4356 H         1 UNK         0.0806 
    113 H113       26.5604   32.8486    1.5242 H         1 UNK         0.0806 
    114 H114       27.6100   33.2735    0.1818 H         1 UNK         0.0806 
    115 H115       29.5175   29.9926    1.1669 H         1 UNK         0.3010 
    116 H116       31.1483   30.5366   -1.0136 H         1 UNK         0.0829 
    117 H117       32.0363   28.2032   -0.6002 H         1 UNK         0.0813 
    118 H118       31.2282   28.1938    0.9636 H         1 UNK         0.0813 
    119 H119       30.2835   28.2941   -0.5162 H         1 UNK         0.0813 
    120 H120       32.1039   30.3935    2.4185 H         1 UNK         0.3038 
    121 H121       34.1712   32.2271    2.2341 H         1 UNK         0.0769 
    122 H122       35.1848   29.3282    2.5625 H         1 UNK         0.0811 
    123 H123       36.1524   30.7740    2.7713 H         1 UNK         0.0811 
    124 H124       35.5466   30.3612    1.1860 H         1 UNK         0.0811 
    125 H125       35.3832   32.0916    4.5061 H         1 UNK         0.3204 
    126 H126       33.3547   31.8848    6.5918 H         1 UNK         0.0748 
    127 H127       35.1325   32.8838    8.0066 H         1 UNK         0.0771 
    128 H128       36.3079   32.6933    6.7123 H         1 UNK         0.0771 
    129 H129       34.9429   33.7937    6.5189 H         1 UNK         0.0771 
    130 H130       33.3849   29.4269    5.7437 H         1 UNK         0.2980 
    131 H131       35.3156   27.6701    6.9725 H         1 UNK         0.0545 
    132 H132       33.7961   26.4858    9.9726 H         1 UNK         0.3459 
    133 H133       34.9642   26.1267    8.7282 H         1 UNK         0.3459 
    134 H134       32.5839   27.0473    5.7470 H         1 UNK         0.0616 
    135 H135       33.7546   25.8401    6.2187 H         1 UNK         0.0616 
    136 H136       32.3570   27.8906    3.5642 H         1 UNK         0.0634 
    137 H137       33.4703   27.7769    2.2322 H         1 UNK         0.0634 
@<TRIPOS>BOND
     1    1    2 1    
     2    1   72 1    
     3    1   73 1    
     4    1   74 1    
     5    2    3 2    
     6    2    4 am   BACKBONE|DICT|INTERRES
     7    4    5 1    
     8    4   75 1    
     9    5    6 1    
    10    5   35 1    
    11    5   76 1    
    12    6    7 1    
    13    6   77 1    
    14    6   78 1    
    15    7    8 1    
    16    8    9 1    
    17    8   79 1    
    18    8   80 1    
    19    9   10 ar   
    20    9   14 ar   
    21   10   11 ar   
    22   10   81 1    
    23   11   12 ar   
    24   11   71 1    
    25   12   13 ar   
    26   12   82 1    
    27   13   14 ar   
    28   13   15 1    
    29   14   83 1    
    30   15   16 1    
    31   15   84 1    
    32   15   85 1    
    33   16   17 1    
    34   17   18 1    
    35   17   86 1    
    36   17   87 1    
    37   18   19 1    
    38   18   37 1    
    39   18   88 1    
    40   19   20 am   BACKBONE|DICT|INTERRES
    41   19   89 1    
    42   20   21 2    
    43   20   22 1    
    44   22   23 1    
    45   22   24 1    
    46   22   90 1    
    47   23   91 1    
    48   23   92 1    
    49   23   93 1    
    50   24   25 am   BACKBONE|DICT|INTERRES
    51   24   94 1    
    52   25   26 2    
    53   25   27 1    
    54   27   28 1    
    55   27   29 1    
    56   27   95 1    
    57   28   96 1    
    58   28   97 1    
    59   28   98 1    
    60   29   30 am   BACKBONE|DICT|INTERRES
    61   29   99 1    
    62   30   31 2    
    63   30   32 1    
    64   32   33 1    
    65   32   34 1    
    66   32  100 1    
    67   33  101 1    
    68   33  102 1    
    69   33  103 1    
    70   34   35 am   BACKBONE|DICT|INTERRES
    71   34  104 1    
    72   35   36 2    
    73   37   38 2    
    74   37   39 am   BACKBONE|DICT|INTERRES
    75   39   40 1    
    76   39  105 1    
    77   40   41 1    
    78   40   42 1    
    79   40  106 1    
    80   41  107 1    
    81   41  108 1    
    82   41  109 1    
    83   42   43 2    
    84   42   44 am   BACKBONE|DICT|INTERRES
    85   44   45 1    
    86   44  110 1    
    87   45   46 1    
    88   45   47 1    
    89   45  111 1    
    90   46  112 1    
    91   46  113 1    
    92   46  114 1    
    93   47   48 2    
    94   47   49 am   BACKBONE|DICT|INTERRES
    95   49   50 1    
    96   49  115 1    
    97   50   51 1    
    98   50   52 1    
    99   50  116 1    
   100   51  117 1    
   101   51  118 1    
   102   51  119 1    
   103   52   53 2    
   104   52   54 am   BACKBONE|DICT|INTERRES
   105   54   55 1    
   106   54  120 1    
   107   55   56 1    
   108   55   57 1    
   109   55  121 1    
   110   56  122 1    
   111   56  123 1    
   112   56  124 1    
   113   57   58 2    
   114   57   59 am   BACKBONE|DICT|INTERRES
   115   59   60 1    
   116   59  125 1    
   117   60   61 1    
   118   60   62 1    
   119   60  126 1    
   120   61  127 1    
   121   61  128 1    
   122   61  129 1    
   123   62   63 2    
   124   62   64 am   BACKBONE|DICT|INTERRES
   125   64   65 1    
   126   64  130 1    
   127   65   66 1    
   128   65   69 1    
   129   65  131 1    
   130   66   67 am   BACKBONE|DICT|INTERRES
   131   66   68 2    
   132   67  132 1    
   133   67  133 1    
   134   69   70 1    
   135   69  134 1    
   136   69  135 1    
   137   70   71 1    
   138   71  136 1    
   139   71  137 1    
@<TRIPOS>SUBSTRUCTURE
     1 UNK         1 GROUP             0       ****    0 ROOT    
