@<TRIPOS>MOLECULE
3R136
137   139    1
SMALL
USER_CHARGES


@<TRIPOS>ATOM
      1 CA         32.5157   21.7601    5.1906 C.3       0 UNK        -0.1979 
      2 C          31.1167   21.3853    4.7264 C.2       0 UNK         0.4864 
      3 O          30.7955   20.1989    4.6454 O.2       0 UNK        -0.5359 
      4 N          30.2886   22.3868    4.4162 N.am      1 UNK        -0.4318 
      5 CA         28.9097   22.2482    3.9511 C.3       1 UNK         0.0824 
      6 C6         28.8123   21.7052    2.4912 C.3       12 UNK        -0.0944 
      7 S7         29.3153   22.8904    1.1951 S.3       12 UNK        -0.2672 
      8 C8         31.0357   22.4100    0.8473 C.3       12 UNK         0.0333 
      9 C9         31.8421   23.6201    0.3974 C.ar      12 UNK        -0.0807 
     10 C10        32.8562   24.1350    1.2098 C.ar      12 UNK        -0.0894 
     11 C11        33.5604   25.2796    0.8243 C.ar      12 UNK        -0.0804 
     12 C12        33.2406   25.9130   -0.3799 C.ar      12 UNK        -0.0824 
     13 C13        32.2323   25.4088   -1.2061 C.ar      12 UNK        -0.0762 
     14 C14        31.5538   24.2459   -0.8196 C.ar      12 UNK        -0.0782 
     15 C15        31.8900   26.1333   -2.5054 C.3       12 UNK         0.0230 
     16 S16        30.0935   26.2782   -2.7639 S.3       12 UNK        -0.2608 
     17 C17        29.9730   27.6311   -3.9916 C.3       12 UNK        -0.0989 
     18 CA         29.3995   28.9490   -3.4011 C.3       5 UNK         0.0716 
     19 N          28.2606   28.6729   -2.5225 N.am      5 UNK        -0.4135 
     20 C          27.4253   29.5515   -1.9589 C.2       4 UNK         0.5031 
     21 O          27.4224   30.7556   -2.2095 O.2       4 UNK        -0.5229 
     22 CA         26.4946   28.9891   -0.8646 C.3       4 UNK         0.0329 
     23 CB         25.1414   28.5754   -1.4629 C.3       4 UNK        -0.2001 
     24 N          27.0790   27.8514   -0.1356 N.am      4 UNK        -0.4303 
     25 C          28.2259   27.9081    0.5589 C.2       3 UNK         0.5044 
     26 O          28.8745   28.9450    0.6961 O.2       3 UNK        -0.5152 
     27 CA         28.7615   26.5818    1.1282 C.3       3 UNK         0.0319 
     28 CB         30.0176   26.7647    2.0029 C.3       3 UNK        -0.2001 
     29 N          27.7725   25.7751    1.8484 N.am      3 UNK        -0.4354 
     30 C          26.9469   26.1540    2.8369 C.2       2 UNK         0.4964 
     31 O          26.7430   27.3203    3.1691 O.2       2 UNK        -0.5047 
     32 CA         26.2361   25.0219    3.6070 C.3       2 UNK         0.0288 
     33 CB         24.8340   24.7747    3.0270 C.3       2 UNK        -0.2113 
     34 N          26.9877   23.7585    3.6195 N.am      2 UNK        -0.4145 
     35 C          28.1914   23.5948    4.1916 C.2       1 UNK         0.5006 
     36 O          28.7468   24.4706    4.8626 O.2       1 UNK        -0.5103 
     37 C          30.5065   29.8095   -2.7441 C.2       5 UNK         0.5055 
     38 O          31.2298   30.4924   -3.4704 O.2       5 UNK        -0.5220 
     39 N          30.6165   29.7883   -1.4069 N.am      6 UNK        -0.4450 
     40 CA         31.5161   30.6366   -0.6173 C.3       6 UNK         0.0367 
     41 CB         32.1656   29.7841    0.4881 C.3       6 UNK        -0.1929 
     42 C          30.7768   31.8456   -0.0074 C.2       6 UNK         0.5070 
     43 O          31.3858   32.5943    0.7563 O.2       6 UNK        -0.5237 
     44 N          29.4860   32.0098   -0.3383 N.am      7 UNK        -0.4739 
     45 CA         28.5408   33.0465    0.0972 C.3       7 UNK         0.0276 
     46 CB         29.0557   34.4600   -0.2475 C.3       7 UNK        -0.1927 
     47 C          28.0761   32.9470    1.5639 C.2       7 UNK         0.5013 
     48 O          27.2253   33.7455    1.9606 O.2       7 UNK        -0.5193 
     49 N          28.5881   31.9827    2.3384 N.am      8 UNK        -0.4253 
     50 CA         28.2389   31.7446    3.7376 C.3       8 UNK         0.0242 
     51 CB         28.7908   32.8701    4.6379 C.3       8 UNK        -0.2000 
     52 C          28.8219   30.4005    4.1776 C.2       8 UNK         0.4948 
     53 O          29.8828   30.0063    3.6871 O.2       8 UNK        -0.5275 
     54 N          28.1748   29.7653    5.1637 N.am      9 UNK        -0.4246 
     55 CA         28.5850   28.5026    5.7923 C.3       9 UNK         0.0261 
     56 CB         27.3671   27.8809    6.5033 C.3       9 UNK        -0.1959 
     57 C          29.7959   28.6611    6.7387 C.2       9 UNK         0.5033 
     58 O          29.7666   28.1699    7.8688 O.2       9 UNK        -0.5390 
     59 N          30.8360   29.3608    6.2710 N.am      10 UNK        -0.4215 
     60 CA         32.0948   29.5836    6.9848 C.3       10 UNK         0.0240 
     61 CB         32.8018   30.8083    6.3815 C.3       10 UNK        -0.1982 
     62 C          33.0161   28.3530    6.9433 C.2       10 UNK         0.4970 
     63 O          33.8308   28.1771    7.8500 O.2       10 UNK        -0.4916 
     64 N          32.8783   27.5404    5.8894 N.am      11 UNK        -0.4279 
     65 CA         33.6152   26.2928    5.6670 C.3       11 UNK         0.1003 
     66 C          33.2464   25.2004    6.7059 C.2       11 UNK         0.5709 
     67 N          34.2282   24.4711    7.2180 N.am      11 UNK        -0.7358 
     68 O          32.0770   24.9740    7.0079 O.2       11 UNK        -0.4999 
     69 C69        33.3916   25.7759    4.2244 C.3       12 UNK        -0.0954 
     70 S70        33.9910   26.9611    2.9725 S.3       12 UNK        -0.2268 
     71 C71        34.6636   25.8425    1.7067 C.3       12 UNK         0.0203 
     72 H72        32.7553   22.7931    4.9443 H         1 UNK         0.0888 
     73 H73        32.6008   21.6359    6.2698 H         1 UNK         0.0888 
     74 H74        33.2574   21.1213    4.7119 H         1 UNK         0.0888 
     75 H75        30.5542   23.3503    4.5826 H         1 UNK         0.3017 
     76 H76        28.4183   21.5297    4.6105 H         1 UNK         0.0873 
     77 H77        27.7854   21.4047    2.2784 H         1 UNK         0.0745 
     78 H78        29.3950   20.7893    2.3841 H         1 UNK         0.0745 
     79 H79        31.4826   21.9640    1.7365 H         1 UNK         0.0705 
     80 H80        31.0497   21.6427    0.0722 H         1 UNK         0.0705 
     81 H81        33.0893   23.6528    2.1485 H         1 UNK         0.1334 
     82 H82        33.7784   26.8051   -0.6706 H         1 UNK         0.1417 
     83 H83        30.7698   23.8447   -1.4473 H         1 UNK         0.1562 
     84 H84        32.3346   25.5990   -3.3459 H         1 UNK         0.0748 
     85 H85        32.3240   27.1346   -2.5015 H         1 UNK         0.0748 
     86 H86        29.3071   27.2816   -4.7822 H         1 UNK         0.0940 
     87 H87        30.9354   27.7913   -4.4827 H         1 UNK         0.0940 
     88 H88        29.0144   29.5437   -4.2321 H         1 UNK         0.0703 
     89 H89        28.1797   27.7052   -2.2439 H         1 UNK         0.3081 
     90 H90        26.3217   29.7890   -0.1413 H         1 UNK         0.0719 
     91 H91        25.2465   27.7572   -2.1765 H         1 UNK         0.0809 
     92 H92        24.4448   28.2580   -0.6867 H         1 UNK         0.0809 
     93 H93        24.6772   29.4102   -1.9902 H         1 UNK         0.0809 
     94 H94        26.5917   26.9683   -0.1900 H         1 UNK         0.2990 
     95 H95        29.0611   25.9862    0.2646 H         1 UNK         0.0690 
     96 H96        30.3753   25.8097    2.3880 H         1 UNK         0.0788 
     97 H97        29.8255   27.4203    2.8513 H         1 UNK         0.0788 
     98 H98        30.8349   27.1988    1.4270 H         1 UNK         0.0788 
     99 H99        27.8317   24.7830    1.6603 H         1 UNK         0.2993 
    100 H100       26.1280   25.3549    4.6416 H         1 UNK         0.0949 
    101 H101       24.2451   25.6933    3.0273 H         1 UNK         0.0767 
    102 H102       24.2845   24.0401    3.6160 H         1 UNK         0.0767 
    103 H103       24.8789   24.4166    1.9976 H         1 UNK         0.0767 
    104 H104       26.5918   22.9931    3.0932 H         1 UNK         0.3013 
    105 H105       29.9616   29.2398   -0.8560 H         1 UNK         0.3121 
    106 H106       32.3130   31.0295   -1.2517 H         1 UNK         0.0774 
    107 H107       32.9495   30.3425    1.0009 H         1 UNK         0.0815 
    108 H108       31.4406   29.4849    1.2457 H         1 UNK         0.0815 
    109 H109       32.6228   28.8816    0.0841 H         1 UNK         0.0815 
    110 H110       29.0821   31.3300   -0.9716 H         1 UNK         0.2987 
    111 H111       27.6417   32.8808   -0.4983 H         1 UNK         0.0949 
    112 H112       29.9140   34.7417    0.3628 H         1 UNK         0.0806 
    113 H113       29.3478   34.5323   -1.2951 H         1 UNK         0.0806 
    114 H114       28.2817   35.2093   -0.0767 H         1 UNK         0.0806 
    115 H115       29.2569   31.3265    1.9504 H         1 UNK         0.3010 
    116 H116       27.1510   31.7012    3.8224 H         1 UNK         0.0829 
    117 H117       28.3414   33.8346    4.4029 H         1 UNK         0.0813 
    118 H118       28.5832   32.6713    5.6901 H         1 UNK         0.0813 
    119 H119       29.8719   32.9711    4.5325 H         1 UNK         0.0813 
    120 H120       27.3380   30.1891    5.5377 H         1 UNK         0.3038 
    121 H121       28.8896   27.8132    5.0025 H         1 UNK         0.0769 
    122 H122       27.0375   28.4886    7.3468 H         1 UNK         0.0811 
    123 H123       27.6066   26.8879    6.8866 H         1 UNK         0.0811 
    124 H124       26.5231   27.7651    5.8238 H         1 UNK         0.0811 
    125 H125       30.7592   29.7212    5.3214 H         1 UNK         0.3204 
    126 H126       31.8706   29.7971    8.0322 H         1 UNK         0.0748 
    127 H127       33.7363   31.0169    6.9045 H         1 UNK         0.0771 
    128 H128       33.0429   30.6579    5.3281 H         1 UNK         0.0771 
    129 H129       32.1815   31.7017    6.4586 H         1 UNK         0.0771 
    130 H130       32.1824   27.7662    5.1962 H         1 UNK         0.2980 
    131 H131       34.6766   26.5221    5.7825 H         1 UNK         0.0545 
    132 H132       35.1902   24.6413    6.9696 H         1 UNK         0.3459 
    133 H133       34.0046   23.7502    7.8855 H         1 UNK         0.3459 
    134 H134       33.9151   24.8285    4.0888 H         1 UNK         0.0616 
    135 H135       32.3345   25.5763    4.0382 H         1 UNK         0.0616 
    136 H136       35.3780   26.3993    1.0985 H         1 UNK         0.0634 
    137 H137       35.2314   25.0366    2.1738 H         1 UNK         0.0634 
@<TRIPOS>BOND
     1    1    2 1    
     2    1   72 1    
     3    1   73 1    
     4    1   74 1    
     5    2    3 2    
     6    2    4 am   BACKBONE|DICT|INTERRES
     7    4    5 1    
     8    4   75 1    
     9    5    6 1    
    10    5   35 1    
    11    5   76 1    
    12    6    7 1    
    13    6   77 1    
    14    6   78 1    
    15    7    8 1    
    16    8    9 1    
    17    8   79 1    
    18    8   80 1    
    19    9   10 ar   
    20    9   14 ar   
    21   10   11 ar   
    22   10   81 1    
    23   11   12 ar   
    24   11   71 1    
    25   12   13 ar   
    26   12   82 1    
    27   13   14 ar   
    28   13   15 1    
    29   14   83 1    
    30   15   16 1    
    31   15   84 1    
    32   15   85 1    
    33   16   17 1    
    34   17   18 1    
    35   17   86 1    
    36   17   87 1    
    37   18   19 1    
    38   18   37 1    
    39   18   88 1    
    40   19   20 am   BACKBONE|DICT|INTERRES
    41   19   89 1    
    42   20   21 2    
    43   20   22 1    
    44   22   23 1    
    45   22   24 1    
    46   22   90 1    
    47   23   91 1    
    48   23   92 1    
    49   23   93 1    
    50   24   25 am   BACKBONE|DICT|INTERRES
    51   24   94 1    
    52   25   26 2    
    53   25   27 1    
    54   27   28 1    
    55   27   29 1    
    56   27   95 1    
    57   28   96 1    
    58   28   97 1    
    59   28   98 1    
    60   29   30 am   BACKBONE|DICT|INTERRES
    61   29   99 1    
    62   30   31 2    
    63   30   32 1    
    64   32   33 1    
    65   32   34 1    
    66   32  100 1    
    67   33  101 1    
    68   33  102 1    
    69   33  103 1    
    70   34   35 am   BACKBONE|DICT|INTERRES
    71   34  104 1    
    72   35   36 2    
    73   37   38 2    
    74   37   39 am   BACKBONE|DICT|INTERRES
    75   39   40 1    
    76   39  105 1    
    77   40   41 1    
    78   40   42 1    
    79   40  106 1    
    80   41  107 1    
    81   41  108 1    
    82   41  109 1    
    83   42   43 2    
    84   42   44 am   BACKBONE|DICT|INTERRES
    85   44   45 1    
    86   44  110 1    
    87   45   46 1    
    88   45   47 1    
    89   45  111 1    
    90   46  112 1    
    91   46  113 1    
    92   46  114 1    
    93   47   48 2    
    94   47   49 am   BACKBONE|DICT|INTERRES
    95   49   50 1    
    96   49  115 1    
    97   50   51 1    
    98   50   52 1    
    99   50  116 1    
   100   51  117 1    
   101   51  118 1    
   102   51  119 1    
   103   52   53 2    
   104   52   54 am   BACKBONE|DICT|INTERRES
   105   54   55 1    
   106   54  120 1    
   107   55   56 1    
   108   55   57 1    
   109   55  121 1    
   110   56  122 1    
   111   56  123 1    
   112   56  124 1    
   113   57   58 2    
   114   57   59 am   BACKBONE|DICT|INTERRES
   115   59   60 1    
   116   59  125 1    
   117   60   61 1    
   118   60   62 1    
   119   60  126 1    
   120   61  127 1    
   121   61  128 1    
   122   61  129 1    
   123   62   63 2    
   124   62   64 am   BACKBONE|DICT|INTERRES
   125   64   65 1    
   126   64  130 1    
   127   65   66 1    
   128   65   69 1    
   129   65  131 1    
   130   66   67 am   BACKBONE|DICT|INTERRES
   131   66   68 2    
   132   67  132 1    
   133   67  133 1    
   134   69   70 1    
   135   69  134 1    
   136   69  135 1    
   137   70   71 1    
   138   71  136 1    
   139   71  137 1    
@<TRIPOS>SUBSTRUCTURE
     1 UNK         1 GROUP             0       ****    0 ROOT    
