@<TRIPOS>MOLECULE
3R136
137   139    1
SMALL
USER_CHARGES


@<TRIPOS>ATOM
      1 CA         27.2727   17.0196    1.5794 C.3       0 UNK        -0.1979 
      2 C          28.2613   18.0094    0.9804 C.2       0 UNK         0.4864 
      3 O          29.4378   17.6796    0.8233 O.2       0 UNK        -0.5359 
      4 N          27.7932   19.2154    0.6438 N.am      1 UNK        -0.4318 
      5 CA         28.5651   20.2895    0.0231 C.3       1 UNK         0.0824 
      6 C6         29.4451   21.0540    1.0531 C.3       12 UNK        -0.0944 
      7 S7         30.9194   21.8144    0.2900 S.3       12 UNK        -0.2672 
      8 C8         30.5481   23.5939    0.3866 C.3       12 UNK         0.0333 
      9 C9         30.8415   24.1735    1.7617 C.ar      12 UNK        -0.0807 
     10 C10        32.1391   24.5888    2.0705 C.ar      12 UNK        -0.0894 
     11 C11        32.4292   25.1484    3.3170 C.ar      12 UNK        -0.0804 
     12 C12        31.4101   25.2894    4.2626 C.ar      12 UNK        -0.0824 
     13 C13        30.1058   24.8778    3.9669 C.ar      12 UNK        -0.0762 
     14 C14        29.8273   24.3202    2.7145 C.ar      12 UNK        -0.0782 
     15 C15        29.0050   25.0037    5.0125 C.3       12 UNK         0.0230 
     16 S16        27.8665   26.3851    4.6719 S.3       12 UNK        -0.2608 
     17 C17        28.9421   27.8440    4.9322 C.3       12 UNK        -0.0989 
     18 CA         28.9301   28.8424    3.7464 C.3       5 UNK         0.0716 
     19 N          29.1057   28.1667    2.4604 N.am      5 UNK        -0.4135 
     20 C          29.2437   28.7556    1.2667 C.2       4 UNK         0.5031 
     21 O          29.3180   29.9740    1.1077 O.2       4 UNK        -0.5229 
     22 CA         29.2073   27.8289    0.0371 C.3       4 UNK         0.0329 
     23 CB         30.6324   27.4048   -0.3506 C.3       4 UNK        -0.2001 
     24 N          28.3673   26.6326    0.2076 N.am      4 UNK        -0.4303 
     25 C          27.0673   26.6339    0.5454 C.2       3 UNK         0.5044 
     26 O          26.4336   27.6629    0.7795 O.2       3 UNK        -0.5152 
     27 CA         26.3768   25.2627    0.6935 C.3       3 UNK         0.0319 
     28 CB         24.8369   25.3655    0.6584 C.3       3 UNK        -0.2001 
     29 N          26.8542   24.2460   -0.2541 N.am      3 UNK        -0.4354 
     30 C          26.7879   24.2780   -1.5948 C.2       2 UNK         0.4964 
     31 O          26.3083   25.2194   -2.2272 O.2       2 UNK        -0.5047 
     32 CA         27.3665   23.0746   -2.3767 C.3       2 UNK         0.0288 
     33 CB         28.2884   23.5505   -3.5149 C.3       2 UNK        -0.2113 
     34 N          28.1063   22.0947   -1.5690 N.am      2 UNK        -0.4145 
     35 C          27.5760   21.2128   -0.7125 C.2       1 UNK         0.5006 
     36 O          26.3675   21.1374   -0.4727 O.2       1 UNK        -0.5103 
     37 C          27.7091   29.7871    3.8137 C.2       5 UNK         0.5055 
     38 O          27.7500   30.7432    4.5895 O.2       5 UNK        -0.5220 
     39 N          26.6645   29.5397    3.0069 N.am      6 UNK        -0.4450 
     40 CA         25.5018   30.4240    2.8922 C.3       6 UNK         0.0367 
     41 CB         24.3220   29.6564    2.2744 C.3       6 UNK        -0.1929 
     42 C          25.8052   31.6956    2.0796 C.2       6 UNK         0.5070 
     43 O          25.1364   32.7082    2.2886 O.2       6 UNK        -0.5237 
     44 N          26.7976   31.6331    1.1792 N.am      7 UNK        -0.4739 
     45 CA         27.3002   32.7842    0.4304 C.3       7 UNK         0.0276 
     46 CB         27.8688   32.3302   -0.9253 C.3       7 UNK        -0.1927 
     47 C          28.3471   33.5411    1.2594 C.2       7 UNK         0.5013 
     48 O          28.1828   34.7412    1.4830 O.2       7 UNK        -0.5193 
     49 N          29.3796   32.8260    1.7264 N.am      8 UNK        -0.4253 
     50 CA         30.4321   33.3446    2.5967 C.3       8 UNK         0.0242 
     51 CB         31.3724   34.2970    1.8284 C.3       8 UNK        -0.2000 
     52 C          31.2163   32.1659    3.1771 C.2       8 UNK         0.4948 
     53 O          31.9074   31.4713    2.4305 O.2       8 UNK        -0.5275 
     54 N          31.1507   31.9785    4.5006 N.am      9 UNK        -0.4246 
     55 CA         31.8593   30.9281    5.2440 C.3       9 UNK         0.0261 
     56 CB         31.1112   30.6582    6.5630 C.3       9 UNK        -0.1959 
     57 C          33.3555   31.2344    5.4636 C.2       9 UNK         0.5033 
     58 O          33.8819   30.9805    6.5485 O.2       9 UNK        -0.5390 
     59 N          34.0306   31.7480    4.4262 N.am      10 UNK        -0.4215 
     60 CA         35.4636   32.0656    4.4183 C.3       10 UNK         0.0240 
     61 CB         35.8072   32.8227    3.1254 C.3       10 UNK        -0.1982 
     62 C          36.3580   30.8225    4.5758 C.2       10 UNK         0.4970 
     63 O          37.4558   30.9279    5.1233 O.2       10 UNK        -0.4916 
     64 N          35.8542   29.6719    4.1166 N.am      11 UNK        -0.4279 
     65 CA         36.4287   28.3379    4.3210 C.3       11 UNK         0.1003 
     66 C          36.2104   27.7427    5.7451 C.2       11 UNK         0.5709 
     67 N          35.4803   28.3904    6.6472 N.am      11 UNK        -0.7358 
     68 O          36.7295   26.6698    6.0435 O.2       11 UNK        -0.4999 
     69 C69        35.9832   27.3676    3.1949 C.3       12 UNK        -0.0954 
     70 S70        34.1706   27.2539    2.9814 S.3       12 UNK        -0.2268 
     71 C71        33.8483   25.5894    3.6346 C.3       12 UNK         0.0203 
     72 H72        26.2722   17.4437    1.6636 H         1 UNK         0.0888 
     73 H73        27.2115   16.1270    0.9575 H         1 UNK         0.0888 
     74 H74        27.5985   16.7202    2.5752 H         1 UNK         0.0888 
     75 H75        26.8074   19.4333    0.7357 H         1 UNK         0.3017 
     76 H76        29.2041   19.8322   -0.7362 H         1 UNK         0.0873 
     77 H77        28.8647   21.7895    1.6110 H         1 UNK         0.0745 
     78 H78        29.8256   20.3615    1.8055 H         1 UNK         0.0745 
     79 H79        31.1505   24.1127   -0.3610 H         1 UNK         0.0705 
     80 H80        29.5121   23.7738    0.1116 H         1 UNK         0.0705 
     81 H81        32.9264   24.4804    1.3367 H         1 UNK         0.1334 
     82 H82        31.6362   25.7149    5.2309 H         1 UNK         0.1417 
     83 H83        28.8205   23.9979    2.4911 H         1 UNK         0.1562 
     84 H84        29.4295   25.1257    6.0104 H         1 UNK         0.0748 
     85 H85        28.4304   24.0766    5.0420 H         1 UNK         0.0748 
     86 H86        29.9667   27.5150    5.1017 H         1 UNK         0.0940 
     87 H87        28.6495   28.3314    5.8647 H         1 UNK         0.0940 
     88 H88        29.7973   29.4909    3.8555 H         1 UNK         0.0703 
     89 H89        29.0413   27.1599    2.4925 H         1 UNK         0.3081 
     90 H90        28.7837   28.4045   -0.7885 H         1 UNK         0.0719 
     91 H91        31.1136   26.8312    0.4421 H         1 UNK         0.0809 
     92 H92        30.6384   26.8014   -1.2584 H         1 UNK         0.0809 
     93 H93        31.2581   28.2783   -0.5402 H         1 UNK         0.0809 
     94 H94        28.8051   25.7461    0.0158 H         1 UNK         0.2990 
     95 H95        26.6497   24.9033    1.6865 H         1 UNK         0.0690 
     96 H96        24.3707   24.3889    0.7890 H         1 UNK         0.0788 
     97 H97        24.4806   25.7849   -0.2830 H         1 UNK         0.0788 
     98 H98        24.4683   26.0082    1.4591 H         1 UNK         0.0788 
     99 H99        27.2071   23.3963    0.1603 H         1 UNK         0.2993 
    100 H100       26.5130   22.5613   -2.8251 H         1 UNK         0.0949 
    101 H101       28.6522   22.7117   -4.1088 H         1 UNK         0.0767 
    102 H102       27.7621   24.2180   -4.1988 H         1 UNK         0.0767 
    103 H103       29.1541   24.0927   -3.1321 H         1 UNK         0.0767 
    104 H104       29.1096   22.0859   -1.6928 H         1 UNK         0.3013 
    105 H105       26.6959   28.7524    2.3640 H         1 UNK         0.3121 
    106 H106       25.2081   30.7360    3.8969 H         1 UNK         0.0774 
    107 H107       24.5133   29.3862    1.2355 H         1 UNK         0.0815 
    108 H108       23.4163   30.2640    2.2873 H         1 UNK         0.0815 
    109 H109       24.1074   28.7412    2.8263 H         1 UNK         0.0815 
    110 H110       27.3363   30.7785    1.1064 H         1 UNK         0.2987 
    111 H111       26.4741   33.4699    0.2273 H         1 UNK         0.0949 
    112 H112       28.7119   31.6484   -0.8152 H         1 UNK         0.0806 
    113 H113       27.1089   31.8261   -1.5225 H         1 UNK         0.0806 
    114 H114       28.2190   33.1863   -1.5034 H         1 UNK         0.0806 
    115 H115       29.4412   31.8331    1.5017 H         1 UNK         0.3010 
    116 H116       29.9648   33.8970    3.4148 H         1 UNK         0.0829 
    117 H117       30.8529   35.1946    1.4937 H         1 UNK         0.0813 
    118 H118       32.1995   34.6236    2.4603 H         1 UNK         0.0813 
    119 H119       31.8032   33.8142    0.9504 H         1 UNK         0.0813 
    120 H120       30.5864   32.6095    5.0525 H         1 UNK         0.3038 
    121 H121       31.8337   30.0080    4.6575 H         1 UNK         0.0769 
    122 H122       31.1552   31.5178    7.2329 H         1 UNK         0.0811 
    123 H123       31.5437   29.8085    7.0931 H         1 UNK         0.0811 
    124 H124       30.0610   30.4258    6.3866 H         1 UNK         0.0811 
    125 H125       33.5202   31.8641    3.5556 H         1 UNK         0.3204 
    126 H126       35.6643   32.7230    5.2668 H         1 UNK         0.0748 
    127 H127       36.8638   33.0934    3.1004 H         1 UNK         0.0771 
    128 H128       35.6028   32.2216    2.2383 H         1 UNK         0.0771 
    129 H129       35.2353   33.7473    3.0432 H         1 UNK         0.0771 
    130 H130       34.9445   29.6835    3.6799 H         1 UNK         0.2980 
    131 H131       37.5114   28.4414    4.2282 H         1 UNK         0.0545 
    132 H132       35.0523   29.2856    6.4439 H         1 UNK         0.3459 
    133 H133       35.3646   27.9822    7.5607 H         1 UNK         0.3459 
    134 H134       36.4099   26.3743    3.3446 H         1 UNK         0.0616 
    135 H135       36.3947   27.7137    2.2456 H         1 UNK         0.0616 
    136 H136       34.0239   25.5824    4.7116 H         1 UNK         0.0634 
    137 H137       34.5543   24.8806    3.1991 H         1 UNK         0.0634 
@<TRIPOS>BOND
     1    1    2 1    
     2    1   72 1    
     3    1   73 1    
     4    1   74 1    
     5    2    3 2    
     6    2    4 am   BACKBONE|DICT|INTERRES
     7    4    5 1    
     8    4   75 1    
     9    5    6 1    
    10    5   35 1    
    11    5   76 1    
    12    6    7 1    
    13    6   77 1    
    14    6   78 1    
    15    7    8 1    
    16    8    9 1    
    17    8   79 1    
    18    8   80 1    
    19    9   10 ar   
    20    9   14 ar   
    21   10   11 ar   
    22   10   81 1    
    23   11   12 ar   
    24   11   71 1    
    25   12   13 ar   
    26   12   82 1    
    27   13   14 ar   
    28   13   15 1    
    29   14   83 1    
    30   15   16 1    
    31   15   84 1    
    32   15   85 1    
    33   16   17 1    
    34   17   18 1    
    35   17   86 1    
    36   17   87 1    
    37   18   19 1    
    38   18   37 1    
    39   18   88 1    
    40   19   20 am   BACKBONE|DICT|INTERRES
    41   19   89 1    
    42   20   21 2    
    43   20   22 1    
    44   22   23 1    
    45   22   24 1    
    46   22   90 1    
    47   23   91 1    
    48   23   92 1    
    49   23   93 1    
    50   24   25 am   BACKBONE|DICT|INTERRES
    51   24   94 1    
    52   25   26 2    
    53   25   27 1    
    54   27   28 1    
    55   27   29 1    
    56   27   95 1    
    57   28   96 1    
    58   28   97 1    
    59   28   98 1    
    60   29   30 am   BACKBONE|DICT|INTERRES
    61   29   99 1    
    62   30   31 2    
    63   30   32 1    
    64   32   33 1    
    65   32   34 1    
    66   32  100 1    
    67   33  101 1    
    68   33  102 1    
    69   33  103 1    
    70   34   35 am   BACKBONE|DICT|INTERRES
    71   34  104 1    
    72   35   36 2    
    73   37   38 2    
    74   37   39 am   BACKBONE|DICT|INTERRES
    75   39   40 1    
    76   39  105 1    
    77   40   41 1    
    78   40   42 1    
    79   40  106 1    
    80   41  107 1    
    81   41  108 1    
    82   41  109 1    
    83   42   43 2    
    84   42   44 am   BACKBONE|DICT|INTERRES
    85   44   45 1    
    86   44  110 1    
    87   45   46 1    
    88   45   47 1    
    89   45  111 1    
    90   46  112 1    
    91   46  113 1    
    92   46  114 1    
    93   47   48 2    
    94   47   49 am   BACKBONE|DICT|INTERRES
    95   49   50 1    
    96   49  115 1    
    97   50   51 1    
    98   50   52 1    
    99   50  116 1    
   100   51  117 1    
   101   51  118 1    
   102   51  119 1    
   103   52   53 2    
   104   52   54 am   BACKBONE|DICT|INTERRES
   105   54   55 1    
   106   54  120 1    
   107   55   56 1    
   108   55   57 1    
   109   55  121 1    
   110   56  122 1    
   111   56  123 1    
   112   56  124 1    
   113   57   58 2    
   114   57   59 am   BACKBONE|DICT|INTERRES
   115   59   60 1    
   116   59  125 1    
   117   60   61 1    
   118   60   62 1    
   119   60  126 1    
   120   61  127 1    
   121   61  128 1    
   122   61  129 1    
   123   62   63 2    
   124   62   64 am   BACKBONE|DICT|INTERRES
   125   64   65 1    
   126   64  130 1    
   127   65   66 1    
   128   65   69 1    
   129   65  131 1    
   130   66   67 am   BACKBONE|DICT|INTERRES
   131   66   68 2    
   132   67  132 1    
   133   67  133 1    
   134   69   70 1    
   135   69  134 1    
   136   69  135 1    
   137   70   71 1    
   138   71  136 1    
   139   71  137 1    
@<TRIPOS>SUBSTRUCTURE
     1 UNK         1 GROUP             0       ****    0 ROOT    
