@<TRIPOS>MOLECULE
3R136
137   139    1
SMALL
USER_CHARGES


@<TRIPOS>ATOM
      1 CA         29.8206   21.5651    3.6040 C.3       0 UNK        -0.1979 
      2 C          28.9857   21.2842    2.3632 C.2       0 UNK         0.4864 
      3 O          28.1868   20.3466    2.3620 O.2       0 UNK        -0.5359 
      4 N          29.1798   22.0816    1.3056 N.am      1 UNK        -0.4318 
      5 CA         28.4725   22.0070    0.0232 C.3       1 UNK         0.0824 
      6 C6         29.0743   22.9541   -1.0505 C.3       12 UNK        -0.0944 
      7 S7         30.9007   22.9618   -1.1115 S.3       12 UNK        -0.2672 
      8 C8         31.2735   24.7060   -0.7256 C.3       12 UNK         0.0333 
      9 C9         31.3421   24.9898    0.7720 C.ar      12 UNK        -0.0807 
     10 C10        32.5756   25.2608    1.3700 C.ar      12 UNK        -0.0894 
     11 C11        32.6556   25.5807    2.7280 C.ar      12 UNK        -0.0804 
     12 C12        31.4871   25.6171    3.4948 C.ar      12 UNK        -0.0824 
     13 C13        30.2409   25.3608    2.9143 C.ar      12 UNK        -0.0762 
     14 C14        30.1818   25.0386    1.5523 C.ar      12 UNK        -0.0782 
     15 C15        28.9896   25.4170    3.7940 C.3       12 UNK         0.0230 
     16 S16        27.4518   25.9150    2.9413 S.3       12 UNK        -0.2608 
     17 C17        27.7977   27.6475    2.4808 C.3       12 UNK        -0.0989 
     18 CA         28.1541   27.7972    0.9793 C.3       5 UNK         0.0716 
     19 N          27.1113   27.2668    0.0960 N.am      5 UNK        -0.4135 
     20 C          27.3171   26.8025   -1.1430 C.2       4 UNK         0.5031 
     21 O          28.4207   26.8115   -1.6916 O.2       4 UNK        -0.5229 
     22 CA         26.0980   26.2378   -1.8887 C.3       4 UNK         0.0329 
     23 CB         26.4811   25.2641   -3.0201 C.3       4 UNK        -0.2001 
     24 N          25.1667   25.5725   -0.9736 N.am      4 UNK        -0.4303 
     25 C          23.8331   25.6997   -1.0229 C.2       3 UNK         0.5044 
     26 O          23.2522   26.4557   -1.8044 O.2       3 UNK        -0.5152 
     27 CA         23.0055   24.8499   -0.0338 C.3       3 UNK         0.0319 
     28 CB         21.5518   24.6311   -0.5061 C.3       3 UNK        -0.2001 
     29 N          23.6302   23.5686    0.3191 N.am      3 UNK        -0.4354 
     30 C          23.9667   22.5665   -0.5080 C.2       2 UNK         0.4964 
     31 O          23.7799   22.5691   -1.7262 O.2       2 UNK        -0.5047 
     32 CA         24.6595   21.3599    0.1515 C.3       2 UNK         0.0288 
     33 CB         24.0482   20.0326   -0.3318 C.3       2 UNK        -0.2113 
     34 N          26.1086   21.3301   -0.0734 N.am      2 UNK        -0.4145 
     35 C          26.9734   22.3126    0.2198 C.2       1 UNK         0.5006 
     36 O          26.6436   23.4249    0.6408 O.2       1 UNK        -0.5103 
     37 C          28.5480   29.2362    0.5988 C.2       5 UNK         0.5055 
     38 O          28.2584   30.1794    1.3374 O.2       5 UNK        -0.5220 
     39 N          29.2257   29.3762   -0.5466 N.am      6 UNK        -0.4450 
     40 CA         29.9655   30.5797   -0.9225 C.3       6 UNK         0.0367 
     41 CB         30.3885   30.4784   -2.3965 C.3       6 UNK        -0.1929 
     42 C          31.1942   30.7387   -0.0099 C.2       6 UNK         0.5070 
     43 O          31.8687   29.7453    0.2686 O.2       6 UNK        -0.5237 
     44 N          31.4515   31.9761    0.4358 N.am      7 UNK        -0.4739 
     45 CA         32.5056   32.3631    1.3863 C.3       7 UNK         0.0276 
     46 CB         33.9116   32.1375    0.7887 C.3       7 UNK        -0.1927 
     47 C          32.3399   31.7190    2.7794 C.2       7 UNK         0.5013 
     48 O          33.3355   31.4176    3.4413 O.2       7 UNK        -0.5193 
     49 N          31.0837   31.5647    3.2297 N.am      8 UNK        -0.4253 
     50 CA         30.7085   30.9937    4.5315 C.3       8 UNK         0.0242 
     51 CB         29.1795   31.0087    4.6838 C.3       8 UNK        -0.2000 
     52 C          31.3653   31.6799    5.7437 C.2       8 UNK         0.4948 
     53 O          31.6486   31.0080    6.7344 O.2       8 UNK        -0.5275 
     54 N          31.6366   32.9878    5.6291 N.am      9 UNK        -0.4246 
     55 CA         32.3676   33.7820    6.6193 C.3       9 UNK         0.0261 
     56 CB         32.2675   35.2702    6.2468 C.3       9 UNK        -0.1959 
     57 C          33.8430   33.3678    6.7863 C.2       9 UNK         0.5033 
     58 O          34.3954   33.5729    7.8682 O.2       9 UNK        -0.5390 
     59 N          34.4548   32.8000    5.7358 N.am      10 UNK        -0.4215 
     60 CA         35.8090   32.2460    5.7773 C.3       10 UNK         0.0240 
     61 CB         36.4624   32.3498    4.3886 C.3       10 UNK        -0.1982 
     62 C          35.7938   30.7907    6.2682 C.2       10 UNK         0.4970 
     63 O          36.6720   30.4120    7.0444 O.2       10 UNK        -0.4916 
     64 N          34.8033   30.0086    5.8165 N.am      11 UNK        -0.4279 
     65 CA         34.5854   28.6159    6.2389 C.3       11 UNK         0.1003 
     66 C          34.1844   28.4684    7.7332 C.2       11 UNK         0.5709 
     67 N          33.3532   29.3469    8.2783 N.am      11 UNK        -0.7358 
     68 O          34.6399   27.5468    8.4062 O.2       11 UNK        -0.4999 
     69 C69        33.5704   27.8903    5.3209 C.3       12 UNK        -0.0954 
     70 S70        34.2141   27.6871    3.6253 S.3       12 UNK        -0.2268 
     71 C71        34.0065   25.8968    3.3554 C.3       12 UNK         0.0203 
     72 H72        30.3840   20.6761    3.8862 H         1 UNK         0.0888 
     73 H73        30.5303   22.3768    3.4435 H         1 UNK         0.0888 
     74 H74        29.1738   21.8377    4.4373 H         1 UNK         0.0888 
     75 H75        29.8717   22.8154    1.3638 H         1 UNK         0.3017 
     76 H76        28.5810   20.9820   -0.3375 H         1 UNK         0.0873 
     77 H77        28.7242   23.9782   -0.9163 H         1 UNK         0.0745 
     78 H78        28.7152   22.6574   -2.0374 H         1 UNK         0.0745 
     79 H79        32.2269   24.9536   -1.1949 H         1 UNK         0.0705 
     80 H80        30.5420   25.3630   -1.1954 H         1 UNK         0.0705 
     81 H81        33.4769   25.2405    0.7725 H         1 UNK         0.1334 
     82 H82        31.5477   25.8599    4.5463 H         1 UNK         0.1417 
     83 H83        29.2219   24.8514    1.0930 H         1 UNK         0.1562 
     84 H84        29.1487   26.0958    4.6335 H         1 UNK         0.0748 
     85 H85        28.8323   24.4287    4.2267 H         1 UNK         0.0748 
     86 H86        28.6098   28.0256    3.1050 H         1 UNK         0.0940 
     87 H87        26.9205   28.2479    2.7289 H         1 UNK         0.0940 
     88 H88        29.0593   27.2181    0.8104 H         1 UNK         0.0703 
     89 H89        26.1760   27.2408    0.4739 H         1 UNK         0.3081 
     90 H90        25.6169   27.1055   -2.3446 H         1 UNK         0.0719 
     91 H91        27.1583   25.7318   -3.7359 H         1 UNK         0.0809 
     92 H92        26.9736   24.3732   -2.6322 H         1 UNK         0.0809 
     93 H93        25.6004   24.9402   -3.5749 H         1 UNK         0.0809 
     94 H94        25.5767   24.9247   -0.3052 H         1 UNK         0.2990 
     95 H95        22.9651   25.4289    0.8899 H         1 UNK         0.0690 
     96 H96        20.9828   24.0472    0.2173 H         1 UNK         0.0788 
     97 H97        21.5123   24.1101   -1.4634 H         1 UNK         0.0788 
     98 H98        21.0317   25.5816   -0.6318 H         1 UNK         0.0788 
     99 H99        23.8867   23.4739    1.2926 H         1 UNK         0.2993 
    100 H100       24.5027   21.4206    1.2307 H         1 UNK         0.0949 
    101 H101       24.2292   19.8669   -1.3948 H         1 UNK         0.0767 
    102 H102       24.4585   19.1833    0.2152 H         1 UNK         0.0767 
    103 H103       22.9679   20.0224   -0.1798 H         1 UNK         0.0767 
    104 H104       26.4797   20.4576   -0.4202 H         1 UNK         0.3013 
    105 H105       29.3829   28.5422   -1.1030 H         1 UNK         0.3121 
    106 H106       29.3077   31.4436   -0.8038 H         1 UNK         0.0774 
    107 H107       31.0467   29.6257   -2.5696 H         1 UNK         0.0815 
    108 H108       29.5235   30.3731   -3.0516 H         1 UNK         0.0815 
    109 H109       30.9262   31.3742   -2.7099 H         1 UNK         0.0815 
    110 H110       30.8401   32.7249    0.1376 H         1 UNK         0.2987 
    111 H111       32.3920   33.4368    1.5439 H         1 UNK         0.0949 
    112 H112       34.0064   32.6007   -0.1932 H         1 UNK         0.0806 
    113 H113       34.6812   32.5733    1.4270 H         1 UNK         0.0806 
    114 H114       34.1433   31.0769    0.6850 H         1 UNK         0.0806 
    115 H115       30.3241   31.8175    2.6133 H         1 UNK         0.3010 
    116 H116       31.0378   29.9537    4.5291 H         1 UNK         0.0829 
    117 H117       28.7764   32.0205    4.6258 H         1 UNK         0.0813 
    118 H118       28.8782   30.5919    5.6461 H         1 UNK         0.0813 
    119 H119       28.6960   30.4101    3.9135 H         1 UNK         0.0813 
    120 H120       31.3557   33.4602    4.7823 H         1 UNK         0.3038 
    121 H121       31.8790   33.6379    7.5854 H         1 UNK         0.0769 
    122 H122       31.2298   35.6025    6.2107 H         1 UNK         0.0811 
    123 H123       32.7220   35.4762    5.2768 H         1 UNK         0.0811 
    124 H124       32.7785   35.8916    6.9838 H         1 UNK         0.0811 
    125 H125       33.9192   32.6057    4.8953 H         1 UNK         0.3204 
    126 H126       36.4159   32.8296    6.4731 H         1 UNK         0.0748 
    127 H127       35.9422   31.7468    3.6439 H         1 UNK         0.0771 
    128 H128       36.4783   33.3804    4.0338 H         1 UNK         0.0771 
    129 H129       37.4958   32.0020    4.4207 H         1 UNK         0.0771 
    130 H130       34.1513   30.3818    5.1377 H         1 UNK         0.2980 
    131 H131       35.5428   28.1013    6.1336 H         1 UNK         0.0545 
    132 H132       33.1026   29.2500    9.2487 H         1 UNK         0.3459 
    133 H133       32.8908   30.0501    7.7063 H         1 UNK         0.3459 
    134 H134       32.6294   28.4388    5.2769 H         1 UNK         0.0616 
    135 H135       33.3277   26.9091    5.7311 H         1 UNK         0.0616 
    136 H136       34.1297   25.3456    4.2885 H         1 UNK         0.0634 
    137 H137       34.8116   25.5573    2.7022 H         1 UNK         0.0634 
@<TRIPOS>BOND
     1    1    2 1    
     2    1   72 1    
     3    1   73 1    
     4    1   74 1    
     5    2    3 2    
     6    2    4 am   BACKBONE|DICT|INTERRES
     7    4    5 1    
     8    4   75 1    
     9    5    6 1    
    10    5   35 1    
    11    5   76 1    
    12    6    7 1    
    13    6   77 1    
    14    6   78 1    
    15    7    8 1    
    16    8    9 1    
    17    8   79 1    
    18    8   80 1    
    19    9   10 ar   
    20    9   14 ar   
    21   10   11 ar   
    22   10   81 1    
    23   11   12 ar   
    24   11   71 1    
    25   12   13 ar   
    26   12   82 1    
    27   13   14 ar   
    28   13   15 1    
    29   14   83 1    
    30   15   16 1    
    31   15   84 1    
    32   15   85 1    
    33   16   17 1    
    34   17   18 1    
    35   17   86 1    
    36   17   87 1    
    37   18   19 1    
    38   18   37 1    
    39   18   88 1    
    40   19   20 am   BACKBONE|DICT|INTERRES
    41   19   89 1    
    42   20   21 2    
    43   20   22 1    
    44   22   23 1    
    45   22   24 1    
    46   22   90 1    
    47   23   91 1    
    48   23   92 1    
    49   23   93 1    
    50   24   25 am   BACKBONE|DICT|INTERRES
    51   24   94 1    
    52   25   26 2    
    53   25   27 1    
    54   27   28 1    
    55   27   29 1    
    56   27   95 1    
    57   28   96 1    
    58   28   97 1    
    59   28   98 1    
    60   29   30 am   BACKBONE|DICT|INTERRES
    61   29   99 1    
    62   30   31 2    
    63   30   32 1    
    64   32   33 1    
    65   32   34 1    
    66   32  100 1    
    67   33  101 1    
    68   33  102 1    
    69   33  103 1    
    70   34   35 am   BACKBONE|DICT|INTERRES
    71   34  104 1    
    72   35   36 2    
    73   37   38 2    
    74   37   39 am   BACKBONE|DICT|INTERRES
    75   39   40 1    
    76   39  105 1    
    77   40   41 1    
    78   40   42 1    
    79   40  106 1    
    80   41  107 1    
    81   41  108 1    
    82   41  109 1    
    83   42   43 2    
    84   42   44 am   BACKBONE|DICT|INTERRES
    85   44   45 1    
    86   44  110 1    
    87   45   46 1    
    88   45   47 1    
    89   45  111 1    
    90   46  112 1    
    91   46  113 1    
    92   46  114 1    
    93   47   48 2    
    94   47   49 am   BACKBONE|DICT|INTERRES
    95   49   50 1    
    96   49  115 1    
    97   50   51 1    
    98   50   52 1    
    99   50  116 1    
   100   51  117 1    
   101   51  118 1    
   102   51  119 1    
   103   52   53 2    
   104   52   54 am   BACKBONE|DICT|INTERRES
   105   54   55 1    
   106   54  120 1    
   107   55   56 1    
   108   55   57 1    
   109   55  121 1    
   110   56  122 1    
   111   56  123 1    
   112   56  124 1    
   113   57   58 2    
   114   57   59 am   BACKBONE|DICT|INTERRES
   115   59   60 1    
   116   59  125 1    
   117   60   61 1    
   118   60   62 1    
   119   60  126 1    
   120   61  127 1    
   121   61  128 1    
   122   61  129 1    
   123   62   63 2    
   124   62   64 am   BACKBONE|DICT|INTERRES
   125   64   65 1    
   126   64  130 1    
   127   65   66 1    
   128   65   69 1    
   129   65  131 1    
   130   66   67 am   BACKBONE|DICT|INTERRES
   131   66   68 2    
   132   67  132 1    
   133   67  133 1    
   134   69   70 1    
   135   69  134 1    
   136   69  135 1    
   137   70   71 1    
   138   71  136 1    
   139   71  137 1    
@<TRIPOS>SUBSTRUCTURE
     1 UNK         1 GROUP             0       ****    0 ROOT    
