@<TRIPOS>MOLECULE
3R136
137   139    1
SMALL
USER_CHARGES


@<TRIPOS>ATOM
      1 CA         23.9793   25.0223    2.3271 C.3       0 UNK        -0.1979 
      2 C          24.8097   23.7485    2.3697 C.2       0 UNK         0.4864 
      3 O          24.3120   22.6831    2.0037 O.2       0 UNK        -0.5359 
      4 N          26.0661   23.8481    2.8229 N.am      1 UNK        -0.4318 
      5 CA         27.0390   22.7499    2.8362 C.3       1 UNK         0.0824 
      6 C6         28.1442   22.9415    3.9101 C.3       12 UNK        -0.0944 
      7 S7         28.9317   24.5885    3.9053 S.3       12 UNK        -0.2672 
      8 C8         30.4242   24.2973    2.9023 C.3       12 UNK         0.0333 
      9 C9         31.1365   25.5967    2.5483 C.ar      12 UNK        -0.0807 
     10 C10        32.4925   25.7585    2.8425 C.ar      12 UNK        -0.0894 
     11 C11        33.1587   26.9451    2.5148 C.ar      12 UNK        -0.0804 
     12 C12        32.4558   27.9688    1.8702 C.ar      12 UNK        -0.0824 
     13 C13        31.1025   27.8164    1.5512 C.ar      12 UNK        -0.0762 
     14 C14        30.4508   26.6287    1.8997 C.ar      12 UNK        -0.0782 
     15 C15        30.3451   28.9560    0.8763 C.3       12 UNK         0.0230 
     16 S16        29.2959   28.4097   -0.5191 S.3       12 UNK        -0.2608 
     17 C17        27.7591   29.3660   -0.2409 C.3       12 UNK        -0.0989 
     18 CA         26.4802   28.5203    0.0130 C.3       5 UNK         0.0716 
     19 N          26.0664   27.7778   -1.1802 N.am      5 UNK        -0.4135 
     20 C          24.8125   27.3530   -1.3958 C.2       4 UNK         0.5031 
     21 O          23.9006   27.4600   -0.5747 O.2       4 UNK        -0.5229 
     22 CA         24.5078   26.7406   -2.7681 C.3       4 UNK         0.0329 
     23 CB         24.4620   27.8220   -3.8649 C.3       4 UNK        -0.2001 
     24 N          25.4692   25.6951   -3.1086 N.am      4 UNK        -0.4303 
     25 C          25.2292   24.6751   -3.9436 C.2       3 UNK         0.5044 
     26 O          24.1831   24.5434   -4.5808 O.2       3 UNK        -0.5152 
     27 CA         26.3368   23.6127   -4.1012 C.3       3 UNK         0.0319 
     28 CB         27.0601   23.7876   -5.4468 C.3       3 UNK        -0.2001 
     29 N          27.3308   23.6191   -3.0217 N.am      3 UNK        -0.4354 
     30 C          27.0782   23.3112   -1.7419 C.2       2 UNK         0.4964 
     31 O          25.9754   22.9295   -1.3444 O.2       2 UNK        -0.5047 
     32 CA         28.2462   23.4872   -0.7551 C.3       2 UNK         0.0288 
     33 CB         29.0657   24.7613   -1.0346 C.3       2 UNK        -0.2113 
     34 N          27.7472   23.5510    0.6174 N.am      2 UNK        -0.4145 
     35 C          27.6442   22.4976    1.4406 C.2       1 UNK         0.5006 
     36 O          28.0169   21.3595    1.1470 O.2       1 UNK        -0.5103 
     37 C          26.5866   27.6324    1.2724 C.2       5 UNK         0.5055 
     38 O          26.8635   26.4313    1.1797 O.2       5 UNK        -0.5220 
     39 N          26.4024   28.2753    2.4307 N.am      6 UNK        -0.4450 
     40 CA         26.7695   27.7696    3.7512 C.3       6 UNK         0.0367 
     41 CB         25.6514   28.1044    4.7519 C.3       6 UNK        -0.1929 
     42 C          28.0846   28.4465    4.1663 C.2       6 UNK         0.5070 
     43 O          28.3457   29.5614    3.7096 O.2       6 UNK        -0.5237 
     44 N          28.8649   27.7569    5.0113 N.am      7 UNK        -0.4739 
     45 CA         30.2393   28.0641    5.4344 C.3       7 UNK         0.0276 
     46 CB         30.5775   27.2184    6.6735 C.3       7 UNK        -0.1927 
     47 C          30.5226   29.5552    5.6935 C.2       7 UNK         0.5013 
     48 O          29.9645   30.1327    6.6297 O.2       7 UNK        -0.5193 
     49 N          31.3693   30.1397    4.8412 N.am      8 UNK        -0.4253 
     50 CA         31.7252   31.5528    4.8096 C.3       8 UNK         0.0242 
     51 CB         30.6155   32.3456    4.0900 C.3       8 UNK        -0.2000 
     52 C          33.0754   31.6994    4.0965 C.2       8 UNK         0.4948 
     53 O          33.6300   30.7016    3.6221 O.2       8 UNK        -0.5275 
     54 N          33.5824   32.9399    4.0386 N.am      9 UNK        -0.4246 
     55 CA         34.8676   33.3362    3.4500 C.3       9 UNK         0.0261 
     56 CB         34.8406   33.1735    1.9117 C.3       9 UNK        -0.1959 
     57 C          36.0270   32.6037    4.1482 C.2       9 UNK         0.5033 
     58 O          36.2493   32.8428    5.3367 O.2       9 UNK        -0.5390 
     59 N          36.6971   31.6870    3.4366 N.am      10 UNK        -0.4215 
     60 CA         37.7344   30.7965    3.9687 C.3       10 UNK         0.0240 
     61 CB         38.3278   29.9694    2.8164 C.3       10 UNK        -0.1982 
     62 C          37.2437   29.8668    5.0966 C.2       10 UNK         0.4970 
     63 O          38.0558   29.4629    5.9298 O.2       10 UNK        -0.4916 
     64 N          35.9398   29.5628    5.1110 N.am      11 UNK        -0.4279 
     65 CA         35.2613   28.7894    6.1596 C.3       11 UNK         0.1003 
     66 C          34.5645   29.6865    7.2251 C.2       11 UNK         0.5709 
     67 N          34.7283   31.0056    7.2112 N.am      11 UNK        -0.7358 
     68 O          33.8711   29.1744    8.1002 O.2       11 UNK        -0.4999 
     69 C69        34.2851   27.7503    5.5497 C.3       12 UNK        -0.0954 
     70 S70        35.1314   26.5435    4.4770 S.3       12 UNK        -0.2268 
     71 C71        34.6449   27.1214    2.8165 C.3       12 UNK         0.0203 
     72 H72        23.7685   25.2953    1.2933 H         1 UNK         0.0888 
     73 H73        23.0314   24.8745    2.8436 H         1 UNK         0.0888 
     74 H74        24.4940   25.8586    2.7974 H         1 UNK         0.0888 
     75 H75        26.4363   24.7527    3.0771 H         1 UNK         0.3017 
     76 H76        26.5022   21.8354    3.0988 H         1 UNK         0.0873 
     77 H77        28.9090   22.1657    3.8338 H         1 UNK         0.0745 
     78 H78        27.6993   22.8074    4.8972 H         1 UNK         0.0745 
     79 H79        30.1647   23.7840    1.9777 H         1 UNK         0.0705 
     80 H80        31.0870   23.6274    3.4522 H         1 UNK         0.0705 
     81 H81        33.0333   24.9578    3.3279 H         1 UNK         0.1334 
     82 H82        32.9665   28.8878    1.6149 H         1 UNK         0.1417 
     83 H83        29.4026   26.5051    1.6679 H         1 UNK         0.1562 
     84 H84        31.0394   29.7091    0.5006 H         1 UNK         0.0748 
     85 H85        29.7490   29.4539    1.6368 H         1 UNK         0.0748 
     86 H86        27.6042   29.9972   -1.1176 H         1 UNK         0.0940 
     87 H87        27.9017   30.0702    0.5802 H         1 UNK         0.0940 
     88 H88        25.6803   29.2379    0.2124 H         1 UNK         0.0703 
     89 H89        26.7675   27.6722   -1.8971 H         1 UNK         0.3081 
     90 H90        23.5169   26.2862   -2.6956 H         1 UNK         0.0719 
     91 H91        23.7739   28.6241   -3.5944 H         1 UNK         0.0809 
     92 H92        25.4408   28.2722   -4.0331 H         1 UNK         0.0809 
     93 H93        24.1177   27.4104   -4.8138 H         1 UNK         0.0809 
     94 H94        26.3335   25.6834   -2.5881 H         1 UNK         0.2990 
     95 H95        25.8487   22.6358   -4.0997 H         1 UNK         0.0690 
     96 H96        27.7895   22.9944   -5.6126 H         1 UNK         0.0788 
     97 H97        27.5820   24.7437   -5.5038 H         1 UNK         0.0788 
     98 H98        26.3537   23.7526   -6.2775 H         1 UNK         0.0788 
     99 H99        28.2641   23.9141   -3.2714 H         1 UNK         0.2993 
    100 H100       28.9055   22.6245   -0.8724 H         1 UNK         0.0949 
    101 H101       29.8525   24.8930   -0.2928 H         1 UNK         0.0767 
    102 H102       29.5610   24.7259   -2.0051 H         1 UNK         0.0767 
    103 H103       28.4372   25.6513   -1.0124 H         1 UNK         0.0767 
    104 H104       27.3784   24.4479    0.9189 H         1 UNK         0.3013 
    105 H105       26.2465   29.2733    2.3981 H         1 UNK         0.3121 
    106 H106       26.9101   26.6892    3.7204 H         1 UNK         0.0774 
    107 H107       25.8845   27.7119    5.7426 H         1 UNK         0.0815 
    108 H108       25.5095   29.1812    4.8539 H         1 UNK         0.0815 
    109 H109       24.6992   27.6706    4.4476 H         1 UNK         0.0815 
    110 H110       28.5279   26.8529    5.3105 H         1 UNK         0.2987 
    111 H111       30.8925   27.7318    4.6259 H         1 UNK         0.0949 
    112 H112       29.8666   27.3911    7.4823 H         1 UNK         0.0806 
    113 H113       30.5728   26.1533    6.4402 H         1 UNK         0.0806 
    114 H114       31.5678   27.4617    7.0594 H         1 UNK         0.0806 
    115 H115       31.8366   29.5909    4.1300 H         1 UNK         0.3010 
    116 H116       31.8414   31.9160    5.8329 H         1 UNK         0.0829 
    117 H117       29.6523   32.2177    4.5848 H         1 UNK         0.0813 
    118 H118       30.8275   33.4149    4.0768 H         1 UNK         0.0813 
    119 H119       30.4985   32.0195    3.0555 H         1 UNK         0.0813 
    120 H120       33.0693   33.6842    4.4903 H         1 UNK         0.3038 
    121 H121       35.0013   34.3970    3.6678 H         1 UNK         0.0769 
    122 H122       35.7788   33.5035    1.4634 H         1 UNK         0.0811 
    123 H123       34.0500   33.7826    1.4732 H         1 UNK         0.0811 
    124 H124       34.6648   32.1434    1.6001 H         1 UNK         0.0811 
    125 H125       36.4198   31.5397    2.4769 H         1 UNK         0.3204 
    126 H126       38.5247   31.4241    4.3857 H         1 UNK         0.0748 
    127 H127       38.7574   30.6102    2.0460 H         1 UNK         0.0771 
    128 H128       39.1261   29.3177    3.1747 H         1 UNK         0.0771 
    129 H129       37.5756   29.3339    2.3467 H         1 UNK         0.0771 
    130 H130       35.3266   29.9653    4.4096 H         1 UNK         0.2980 
    131 H131       36.0085   28.2253    6.7202 H         1 UNK         0.0545 
    132 H132       35.3240   31.4593    6.5285 H         1 UNK         0.3459 
    133 H133       34.2801   31.5566    7.9253 H         1 UNK         0.3459 
    134 H134       33.7976   27.1760    6.3383 H         1 UNK         0.0616 
    135 H135       33.4893   28.2471    4.9953 H         1 UNK         0.0616 
    136 H136       35.2166   26.5636    2.0742 H         1 UNK         0.0634 
    137 H137       34.9397   28.1668    2.7125 H         1 UNK         0.0634 
@<TRIPOS>BOND
     1    1    2 1    
     2    1   72 1    
     3    1   73 1    
     4    1   74 1    
     5    2    3 2    
     6    2    4 am   BACKBONE|DICT|INTERRES
     7    4    5 1    
     8    4   75 1    
     9    5    6 1    
    10    5   35 1    
    11    5   76 1    
    12    6    7 1    
    13    6   77 1    
    14    6   78 1    
    15    7    8 1    
    16    8    9 1    
    17    8   79 1    
    18    8   80 1    
    19    9   10 ar   
    20    9   14 ar   
    21   10   11 ar   
    22   10   81 1    
    23   11   12 ar   
    24   11   71 1    
    25   12   13 ar   
    26   12   82 1    
    27   13   14 ar   
    28   13   15 1    
    29   14   83 1    
    30   15   16 1    
    31   15   84 1    
    32   15   85 1    
    33   16   17 1    
    34   17   18 1    
    35   17   86 1    
    36   17   87 1    
    37   18   19 1    
    38   18   37 1    
    39   18   88 1    
    40   19   20 am   BACKBONE|DICT|INTERRES
    41   19   89 1    
    42   20   21 2    
    43   20   22 1    
    44   22   23 1    
    45   22   24 1    
    46   22   90 1    
    47   23   91 1    
    48   23   92 1    
    49   23   93 1    
    50   24   25 am   BACKBONE|DICT|INTERRES
    51   24   94 1    
    52   25   26 2    
    53   25   27 1    
    54   27   28 1    
    55   27   29 1    
    56   27   95 1    
    57   28   96 1    
    58   28   97 1    
    59   28   98 1    
    60   29   30 am   BACKBONE|DICT|INTERRES
    61   29   99 1    
    62   30   31 2    
    63   30   32 1    
    64   32   33 1    
    65   32   34 1    
    66   32  100 1    
    67   33  101 1    
    68   33  102 1    
    69   33  103 1    
    70   34   35 am   BACKBONE|DICT|INTERRES
    71   34  104 1    
    72   35   36 2    
    73   37   38 2    
    74   37   39 am   BACKBONE|DICT|INTERRES
    75   39   40 1    
    76   39  105 1    
    77   40   41 1    
    78   40   42 1    
    79   40  106 1    
    80   41  107 1    
    81   41  108 1    
    82   41  109 1    
    83   42   43 2    
    84   42   44 am   BACKBONE|DICT|INTERRES
    85   44   45 1    
    86   44  110 1    
    87   45   46 1    
    88   45   47 1    
    89   45  111 1    
    90   46  112 1    
    91   46  113 1    
    92   46  114 1    
    93   47   48 2    
    94   47   49 am   BACKBONE|DICT|INTERRES
    95   49   50 1    
    96   49  115 1    
    97   50   51 1    
    98   50   52 1    
    99   50  116 1    
   100   51  117 1    
   101   51  118 1    
   102   51  119 1    
   103   52   53 2    
   104   52   54 am   BACKBONE|DICT|INTERRES
   105   54   55 1    
   106   54  120 1    
   107   55   56 1    
   108   55   57 1    
   109   55  121 1    
   110   56  122 1    
   111   56  123 1    
   112   56  124 1    
   113   57   58 2    
   114   57   59 am   BACKBONE|DICT|INTERRES
   115   59   60 1    
   116   59  125 1    
   117   60   61 1    
   118   60   62 1    
   119   60  126 1    
   120   61  127 1    
   121   61  128 1    
   122   61  129 1    
   123   62   63 2    
   124   62   64 am   BACKBONE|DICT|INTERRES
   125   64   65 1    
   126   64  130 1    
   127   65   66 1    
   128   65   69 1    
   129   65  131 1    
   130   66   67 am   BACKBONE|DICT|INTERRES
   131   66   68 2    
   132   67  132 1    
   133   67  133 1    
   134   69   70 1    
   135   69  134 1    
   136   69  135 1    
   137   70   71 1    
   138   71  136 1    
   139   71  137 1    
@<TRIPOS>SUBSTRUCTURE
     1 UNK         1 GROUP             0       ****    0 ROOT    
