@<TRIPOS>MOLECULE
3R136
137   139    1
SMALL
USER_CHARGES


@<TRIPOS>ATOM
      1 CA         23.9051   22.6866    3.7937 C.3       0 UNK        -0.1979 
      2 C          24.8693   23.1971    2.7342 C.2       0 UNK         0.4864 
      3 O          24.4308   23.7104    1.7043 O.2       0 UNK        -0.5359 
      4 N          26.1828   23.0812    2.9823 N.am      1 UNK        -0.4318 
      5 CA         27.2589   23.4784    2.0609 C.3       1 UNK         0.0824 
      6 C6         28.6494   23.0490    2.5972 C.3       12 UNK        -0.0944 
      7 S7         29.8286   22.7112    1.2502 S.3       12 UNK        -0.2672 
      8 C8         31.4389   22.7121    2.1194 C.3       12 UNK         0.0333 
      9 C9         32.4281   23.7504    1.5880 C.ar      12 UNK        -0.0807 
     10 C10        33.3316   24.3642    2.4646 C.ar      12 UNK        -0.0894 
     11 C11        34.2585   25.3032    1.9956 C.ar      12 UNK        -0.0804 
     12 C12        34.2710   25.6336    0.6364 C.ar      12 UNK        -0.0824 
     13 C13        33.3684   25.0405   -0.2473 C.ar      12 UNK        -0.0762 
     14 C14        32.4723   24.0810    0.2283 C.ar      12 UNK        -0.0782 
     15 C15        33.3432   25.4526   -1.7117 C.3       12 UNK         0.0230 
     16 S16        32.3179   26.9383   -1.9662 S.3       12 UNK        -0.2608 
     17 C17        30.6750   26.3200   -1.4650 C.3       12 UNK        -0.0989 
     18 CA         29.5079   27.2721   -1.8331 C.3       5 UNK         0.0716 
     19 N          28.2580   26.5186   -1.9046 N.am      5 UNK        -0.4135 
     20 C          27.5811   26.1963   -3.0092 C.2       4 UNK         0.5031 
     21 O          27.9281   26.5120   -4.1482 O.2       4 UNK        -0.5229 
     22 CA         26.3044   25.3638   -2.8152 C.3       4 UNK         0.0329 
     23 CB         26.6603   23.8718   -2.6995 C.3       4 UNK        -0.2001 
     24 N          25.5529   25.7656   -1.6225 N.am      4 UNK        -0.4303 
     25 C          24.4455   26.5223   -1.6327 C.2       3 UNK         0.5044 
     26 O          23.9577   27.0047   -2.6557 O.2       3 UNK        -0.5152 
     27 CA         23.7353   26.7686   -0.2873 C.3       3 UNK         0.0319 
     28 CB         22.5460   25.8075   -0.1292 C.3       3 UNK        -0.2001 
     29 N          24.6376   26.6167    0.8571 N.am      3 UNK        -0.4354 
     30 C          25.4192   27.6040    1.3229 C.2       2 UNK         0.4964 
     31 O          25.3197   28.7714    0.9440 O.2       2 UNK        -0.5047 
     32 CA         26.4858   27.2581    2.3857 C.3       2 UNK         0.0288 
     33 CB         26.1440   27.9020    3.7402 C.3       2 UNK        -0.2113 
     34 N          26.7128   25.8232    2.5885 N.am      2 UNK        -0.4145 
     35 C          27.2206   24.9769    1.6793 C.2       1 UNK         0.5006 
     36 O          27.5789   25.3286    0.5549 O.2       1 UNK        -0.5103 
     37 C          29.3266   28.4113   -0.8093 C.2       5 UNK         0.5055 
     38 O          28.2163   28.6283   -0.3215 O.2       5 UNK        -0.5220 
     39 N          30.4150   29.1223   -0.4858 N.am      6 UNK        -0.4450 
     40 CA         30.4532   30.0889    0.6161 C.3       6 UNK         0.0367 
     41 CB         31.7206   30.9548    0.5206 C.3       6 UNK        -0.1929 
     42 C          30.3737   29.3759    1.9753 C.2       6 UNK         0.5070 
     43 O          29.5308   29.7290    2.8011 O.2       6 UNK        -0.5237 
     44 N          31.2405   28.3660    2.1556 N.am      7 UNK        -0.4739 
     45 CA         31.3492   27.4825    3.3205 C.3       7 UNK         0.0276 
     46 CB         30.2614   26.3929    3.2503 C.3       7 UNK        -0.1927 
     47 C          31.3731   28.2668    4.6447 C.2       7 UNK         0.5013 
     48 O          32.3031   29.0443    4.8614 O.2       7 UNK        -0.5193 
     49 N          30.3387   28.1006    5.4800 N.am      8 UNK        -0.4253 
     50 CA         30.1522   28.7688    6.7726 C.3       8 UNK         0.0242 
     51 CB         28.8400   28.2731    7.4024 C.3       8 UNK        -0.2000 
     52 C          30.1770   30.3106    6.7323 C.2       8 UNK         0.4948 
     53 O          30.4296   30.9232    7.7704 O.2       8 UNK        -0.5275 
     54 N          29.9408   30.9159    5.5582 N.am      9 UNK        -0.4246 
     55 CA         30.0655   32.3591    5.3419 C.3       9 UNK         0.0261 
     56 CB         29.2761   32.7543    4.0824 C.3       9 UNK        -0.1959 
     57 C          31.5255   32.8444    5.2331 C.2       9 UNK         0.5033 
     58 O          31.7427   34.0561    5.2951 O.2       9 UNK        -0.5390 
     59 N          32.4913   31.9311    5.0543 N.am      10 UNK        -0.4215 
     60 CA         33.9048   32.2480    4.8661 C.3       10 UNK         0.0240 
     61 CB         34.2040   32.3977    3.3585 C.3       10 UNK        -0.1982 
     62 C          34.7789   31.1972    5.5659 C.2       10 UNK         0.4970 
     63 O          35.1138   31.3709    6.7380 O.2       10 UNK        -0.4916 
     64 N          35.1551   30.1512    4.8241 N.am      11 UNK        -0.4279 
     65 CA         36.0509   29.0577    5.2287 C.3       11 UNK         0.1003 
     66 C          35.5326   28.1208    6.3574 C.2       11 UNK         0.5709 
     67 N          34.2388   28.0669    6.6373 N.am      11 UNK        -0.7358 
     68 O          36.3286   27.4397    6.9997 O.2       11 UNK        -0.4999 
     69 C69        36.5382   28.2594    3.9886 C.3       12 UNK        -0.0954 
     70 S70        35.1871   27.7707    2.8577 S.3       12 UNK        -0.2268 
     71 C71        35.2540   25.9544    2.9494 C.3       12 UNK         0.0203 
     72 H72        24.4273   22.2714    4.6554 H         1 UNK         0.0888 
     73 H73        23.2667   23.4983    4.1414 H         1 UNK         0.0888 
     74 H74        23.2683   21.9079    3.3750 H         1 UNK         0.0888 
     75 H75        26.4810   22.6550    3.8486 H         1 UNK         0.3017 
     76 H76        27.0648   22.9258    1.1385 H         1 UNK         0.0873 
     77 H77        28.5660   22.1230    3.1687 H         1 UNK         0.0745 
     78 H78        29.0575   23.7883    3.2873 H         1 UNK         0.0745 
     79 H79        31.8877   21.7238    2.0138 H         1 UNK         0.0705 
     80 H80        31.2772   22.8608    3.1880 H         1 UNK         0.0705 
     81 H81        33.3176   24.1053    3.5146 H         1 UNK         0.1334 
     82 H82        34.9739   26.3687    0.2684 H         1 UNK         0.1417 
     83 H83        31.7899   23.6099   -0.4651 H         1 UNK         0.1562 
     84 H84        32.9691   24.6388   -2.3351 H         1 UNK         0.0748 
     85 H85        34.3578   25.6583   -2.0562 H         1 UNK         0.0748 
     86 H86        30.6704   26.0976   -0.3955 H         1 UNK         0.0940 
     87 H87        30.5347   25.3602   -1.9658 H         1 UNK         0.0940 
     88 H88        29.7077   27.7385   -2.8000 H         1 UNK         0.0703 
     89 H89        27.8922   26.2300   -0.9993 H         1 UNK         0.3081 
     90 H90        25.6875   25.4911   -3.7075 H         1 UNK         0.0719 
     91 H91        27.2128   23.5329   -3.5770 H         1 UNK         0.0809 
     92 H92        27.2799   23.6682   -1.8248 H         1 UNK         0.0809 
     93 H93        25.7636   23.2563   -2.6244 H         1 UNK         0.0809 
     94 H94        25.9223   25.4580   -0.7314 H         1 UNK         0.2990 
     95 H95        23.3380   27.7858   -0.3043 H         1 UNK         0.0690 
     96 H96        22.0294   25.9657    0.8176 H         1 UNK         0.0788 
     97 H97        22.8599   24.7640   -0.1703 H         1 UNK         0.0788 
     98 H98        21.8165   25.9577   -0.9262 H         1 UNK         0.0788 
     99 H99        24.7236   25.6807    1.2420 H         1 UNK         0.2993 
    100 H100       27.4228   27.6939    2.0330 H         1 UNK         0.0949 
    101 H101       26.0181   28.9809    3.6378 H         1 UNK         0.0767 
    102 H102       25.2182   27.5020    4.1554 H         1 UNK         0.0767 
    103 H103       26.9396   27.7425    4.4680 H         1 UNK         0.0767 
    104 H104       26.4095   25.4402    3.4719 H         1 UNK         0.3013 
    105 H105       31.2917   28.8821   -0.9304 H         1 UNK         0.3121 
    106 H106       29.5854   30.7471    0.5315 H         1 UNK         0.0774 
    107 H107       31.7545   31.6814    1.3337 H         1 UNK         0.0815 
    108 H108       32.6318   30.3583    0.5779 H         1 UNK         0.0815 
    109 H109       31.7461   31.5158   -0.4136 H         1 UNK         0.0815 
    110 H110       31.9087   28.1860    1.4204 H         1 UNK         0.2987 
    111 H111       32.3175   26.9887    3.2501 H         1 UNK         0.0949 
    112 H112       30.3739   25.6722    4.0610 H         1 UNK         0.0806 
    113 H113       30.3306   25.8359    2.3154 H         1 UNK         0.0806 
    114 H114       29.2594   26.8148    3.3059 H         1 UNK         0.0806 
    115 H115       29.6051   27.4699    5.1945 H         1 UNK         0.3010 
    116 H116       30.9790   28.4579    7.4145 H         1 UNK         0.0829 
    117 H117       27.9759   28.5314    6.7889 H         1 UNK         0.0813 
    118 H118       28.8462   27.1915    7.5391 H         1 UNK         0.0813 
    119 H119       28.6852   28.7194    8.3859 H         1 UNK         0.0813 
    120 H120       29.7485   30.3495    4.7361 H         1 UNK         0.3038 
    121 H121       29.6149   32.8729    6.1939 H         1 UNK         0.0769 
    122 H122       29.2458   33.8386    3.9672 H         1 UNK         0.0811 
    123 H123       28.2447   32.4045    4.1301 H         1 UNK         0.0811 
    124 H124       29.7282   32.3472    3.1777 H         1 UNK         0.0811 
    125 H125       32.2542   30.9406    5.0458 H         1 UNK         0.3204 
    126 H126       34.1366   33.1997    5.3492 H         1 UNK         0.0748 
    127 H127       35.2688   32.5561    3.1816 H         1 UNK         0.0771 
    128 H128       33.8978   31.5201    2.7881 H         1 UNK         0.0771 
    129 H129       33.6792   33.2574    2.9413 H         1 UNK         0.0771 
    130 H130       34.7761   30.0606    3.8932 H         1 UNK         0.2980 
    131 H131       36.9329   29.5398    5.6544 H         1 UNK         0.0545 
    132 H132       33.5755   28.5737    6.0569 H         1 UNK         0.3459 
    133 H133       33.9167   27.4662    7.3777 H         1 UNK         0.3459 
    134 H134       37.2234   28.8827    3.4123 H         1 UNK         0.0616 
    135 H135       37.1223   27.3851    4.2821 H         1 UNK         0.0616 
    136 H136       35.0661   25.6478    3.9796 H         1 UNK         0.0634 
    137 H137       36.2595   25.6162    2.6955 H         1 UNK         0.0634 
@<TRIPOS>BOND
     1    1    2 1    
     2    1   72 1    
     3    1   73 1    
     4    1   74 1    
     5    2    3 2    
     6    2    4 am   BACKBONE|DICT|INTERRES
     7    4    5 1    
     8    4   75 1    
     9    5    6 1    
    10    5   35 1    
    11    5   76 1    
    12    6    7 1    
    13    6   77 1    
    14    6   78 1    
    15    7    8 1    
    16    8    9 1    
    17    8   79 1    
    18    8   80 1    
    19    9   10 ar   
    20    9   14 ar   
    21   10   11 ar   
    22   10   81 1    
    23   11   12 ar   
    24   11   71 1    
    25   12   13 ar   
    26   12   82 1    
    27   13   14 ar   
    28   13   15 1    
    29   14   83 1    
    30   15   16 1    
    31   15   84 1    
    32   15   85 1    
    33   16   17 1    
    34   17   18 1    
    35   17   86 1    
    36   17   87 1    
    37   18   19 1    
    38   18   37 1    
    39   18   88 1    
    40   19   20 am   BACKBONE|DICT|INTERRES
    41   19   89 1    
    42   20   21 2    
    43   20   22 1    
    44   22   23 1    
    45   22   24 1    
    46   22   90 1    
    47   23   91 1    
    48   23   92 1    
    49   23   93 1    
    50   24   25 am   BACKBONE|DICT|INTERRES
    51   24   94 1    
    52   25   26 2    
    53   25   27 1    
    54   27   28 1    
    55   27   29 1    
    56   27   95 1    
    57   28   96 1    
    58   28   97 1    
    59   28   98 1    
    60   29   30 am   BACKBONE|DICT|INTERRES
    61   29   99 1    
    62   30   31 2    
    63   30   32 1    
    64   32   33 1    
    65   32   34 1    
    66   32  100 1    
    67   33  101 1    
    68   33  102 1    
    69   33  103 1    
    70   34   35 am   BACKBONE|DICT|INTERRES
    71   34  104 1    
    72   35   36 2    
    73   37   38 2    
    74   37   39 am   BACKBONE|DICT|INTERRES
    75   39   40 1    
    76   39  105 1    
    77   40   41 1    
    78   40   42 1    
    79   40  106 1    
    80   41  107 1    
    81   41  108 1    
    82   41  109 1    
    83   42   43 2    
    84   42   44 am   BACKBONE|DICT|INTERRES
    85   44   45 1    
    86   44  110 1    
    87   45   46 1    
    88   45   47 1    
    89   45  111 1    
    90   46  112 1    
    91   46  113 1    
    92   46  114 1    
    93   47   48 2    
    94   47   49 am   BACKBONE|DICT|INTERRES
    95   49   50 1    
    96   49  115 1    
    97   50   51 1    
    98   50   52 1    
    99   50  116 1    
   100   51  117 1    
   101   51  118 1    
   102   51  119 1    
   103   52   53 2    
   104   52   54 am   BACKBONE|DICT|INTERRES
   105   54   55 1    
   106   54  120 1    
   107   55   56 1    
   108   55   57 1    
   109   55  121 1    
   110   56  122 1    
   111   56  123 1    
   112   56  124 1    
   113   57   58 2    
   114   57   59 am   BACKBONE|DICT|INTERRES
   115   59   60 1    
   116   59  125 1    
   117   60   61 1    
   118   60   62 1    
   119   60  126 1    
   120   61  127 1    
   121   61  128 1    
   122   61  129 1    
   123   62   63 2    
   124   62   64 am   BACKBONE|DICT|INTERRES
   125   64   65 1    
   126   64  130 1    
   127   65   66 1    
   128   65   69 1    
   129   65  131 1    
   130   66   67 am   BACKBONE|DICT|INTERRES
   131   66   68 2    
   132   67  132 1    
   133   67  133 1    
   134   69   70 1    
   135   69  134 1    
   136   69  135 1    
   137   70   71 1    
   138   71  136 1    
   139   71  137 1    
@<TRIPOS>SUBSTRUCTURE
     1 UNK         1 GROUP             0       ****    0 ROOT    
