@<TRIPOS>MOLECULE
3R136
137   139    1
SMALL
USER_CHARGES


@<TRIPOS>ATOM
      1 CA         27.5923   20.8416    5.0414 C.3       0 UNK        -0.1979 
      2 C          27.6549   21.4593    3.6523 C.2       0 UNK         0.4864 
      3 O          27.5157   22.6754    3.5230 O.2       0 UNK        -0.5359 
      4 N          27.8671   20.6272    2.6224 N.am      1 UNK        -0.4318 
      5 CA         27.9570   20.9934    1.2011 C.3       1 UNK         0.0824 
      6 C6         29.1966   21.8714    0.8534 C.3       12 UNK        -0.0944 
      7 S7         30.7681   21.1817    1.4726 S.3       12 UNK        -0.2672 
      8 C8         31.3406   22.5415    2.5556 C.3       12 UNK         0.0333 
      9 C9         31.9668   23.7506    1.8490 C.ar      12 UNK        -0.0807 
     10 C10        32.5549   24.7439    2.6394 C.ar      12 UNK        -0.0894 
     11 C11        33.2105   25.8351    2.0599 C.ar      12 UNK        -0.0804 
     12 C12        33.2588   25.9437    0.6661 C.ar      12 UNK        -0.0824 
     13 C13        32.6611   24.9713   -0.1428 C.ar      12 UNK        -0.0762 
     14 C14        32.0145   23.8851    0.4541 C.ar      12 UNK        -0.0782 
     15 C15        32.7851   25.0343   -1.6619 C.3       12 UNK         0.0230 
     16 S16        32.0233   26.5123   -2.4035 S.3       12 UNK        -0.2608 
     17 C17        30.2426   26.2613   -2.0839 C.3       12 UNK        -0.0989 
     18 CA         29.5937   27.5472   -1.5132 C.3       5 UNK         0.0716 
     19 N          28.1481   27.5959   -1.7400 N.am      5 UNK        -0.4135 
     20 C          27.5027   28.6238   -2.3124 C.2       4 UNK         0.5031 
     21 O          28.0638   29.5968   -2.8182 O.2       4 UNK        -0.5229 
     22 CA         25.9621   28.5776   -2.3197 C.3       4 UNK         0.0329 
     23 CB         25.4495   27.9581   -3.6300 C.3       4 UNK        -0.2001 
     24 N          25.3967   27.8432   -1.1870 N.am      4 UNK        -0.4303 
     25 C          25.5291   28.1868    0.1025 C.2       3 UNK         0.5044 
     26 O          26.0401   29.2408    0.4804 O.2       3 UNK        -0.5152 
     27 CA         25.0382   27.1700    1.1509 C.3       3 UNK         0.0319 
     28 CB         23.7046   27.6306    1.7610 C.3       3 UNK        -0.2001 
     29 N          24.8906   25.7921    0.6583 N.am      3 UNK        -0.4354 
     30 C          25.8743   25.0340    0.1552 C.2       2 UNK         0.4964 
     31 O          27.0265   25.4357   -0.0419 O.2       2 UNK        -0.5047 
     32 CA         25.5074   23.6022   -0.2397 C.3       2 UNK         0.0288 
     33 CB         25.2129   23.5104   -1.7462 C.3       2 UNK        -0.2113 
     34 N          26.6563   22.7702    0.0890 N.am      2 UNK        -0.4145 
     35 C          26.6143   21.5882    0.7134 C.2       1 UNK         0.5006 
     36 O          25.5695   20.9667    0.9256 O.2       1 UNK        -0.5103 
     37 C          29.9000   27.7286   -0.0177 C.2       5 UNK         0.5055 
     38 O          30.7668   28.5342    0.3191 O.2       5 UNK        -0.5220 
     39 N          29.1804   27.0048    0.8528 N.am      6 UNK        -0.4450 
     40 CA         29.3609   27.0042    2.3047 C.3       6 UNK         0.0367 
     41 CB         28.7507   25.7181    2.8855 C.3       6 UNK        -0.1929 
     42 C          28.7920   28.2719    2.9663 C.2       6 UNK         0.5070 
     43 O          27.8261   28.1984    3.7292 O.2       6 UNK        -0.5237 
     44 N          29.4086   29.4211    2.6728 N.am      7 UNK        -0.4739 
     45 CA         29.0874   30.7443    3.2125 C.3       7 UNK         0.0276 
     46 CB         29.6941   31.8113    2.2818 C.3       7 UNK        -0.1927 
     47 C          29.5531   30.9068    4.6743 C.2       7 UNK         0.5013 
     48 O          30.3406   31.8062    4.9741 O.2       7 UNK        -0.5193 
     49 N          29.0779   30.0188    5.5588 N.am      8 UNK        -0.4253 
     50 CA         29.4452   29.8970    6.9734 C.3       8 UNK         0.0242 
     51 CB         28.8553   31.0709    7.7897 C.3       8 UNK        -0.2000 
     52 C          30.9679   29.7113    7.1294 C.2       8 UNK         0.4948 
     53 O          31.4911   28.6923    6.6776 O.2       8 UNK        -0.5275 
     54 N          31.6467   30.6924    7.7364 N.am      9 UNK        -0.4246 
     55 CA         33.1037   30.7401    7.8690 C.3       9 UNK         0.0261 
     56 CB         33.4527   31.2859    9.2643 C.3       9 UNK        -0.1959 
     57 C          33.7780   31.5958    6.7800 C.2       9 UNK         0.5033 
     58 O          35.0037   31.5406    6.6638 O.2       9 UNK        -0.5390 
     59 N          33.0067   32.3800    6.0082 N.am      10 UNK        -0.4215 
     60 CA         33.5316   33.3386    5.0265 C.3       10 UNK         0.0240 
     61 CB         32.4290   34.3296    4.6181 C.3       10 UNK        -0.1982 
     62 C          34.1510   32.6747    3.7860 C.2       10 UNK         0.4970 
     63 O          34.9791   33.3016    3.1240 O.2       10 UNK        -0.4916 
     64 N          33.7620   31.4253    3.5045 N.am      11 UNK        -0.4279 
     65 CA         34.3669   30.5773    2.4692 C.3       11 UNK         0.1003 
     66 C          35.7865   30.0351    2.8162 C.2       11 UNK         0.5709 
     67 N          36.2871   30.1916    4.0378 N.am      11 UNK        -0.7358 
     68 O          36.4535   29.4725    1.9514 O.2       11 UNK        -0.4999 
     69 C69        33.3928   29.4610    2.0125 C.3       12 UNK        -0.0954 
     70 S70        32.9073   28.3017    3.3379 S.3       12 UNK        -0.2268 
     71 C71        33.9289   26.8456    2.9471 C.3       12 UNK         0.0203 
     72 H72        27.7393   19.7621    5.0157 H         1 UNK         0.0888 
     73 H73        28.3641   21.2737    5.6776 H         1 UNK         0.0888 
     74 H74        26.6229   21.0417    5.4969 H         1 UNK         0.0888 
     75 H75        27.9486   19.6376    2.8077 H         1 UNK         0.3017 
     76 H76        28.0693   20.0522    0.6608 H         1 UNK         0.0873 
     77 H77        29.0774   22.8813    1.2460 H         1 UNK         0.0745 
     78 H78        29.2941   21.9728   -0.2290 H         1 UNK         0.0745 
     79 H79        30.5127   22.8747    3.1829 H         1 UNK         0.0705 
     80 H80        32.0841   22.1224    3.2350 H         1 UNK         0.0705 
     81 H81        32.5317   24.6498    3.7168 H         1 UNK         0.1334 
     82 H82        33.7797   26.7719    0.2065 H         1 UNK         0.1417 
     83 H83        31.5824   23.1290   -0.1838 H         1 UNK         0.1562 
     84 H84        32.3530   24.1478   -2.1290 H         1 UNK         0.0748 
     85 H85        33.8442   25.0251   -1.9227 H         1 UNK         0.0748 
     86 H86        30.0779   25.4007   -1.4324 H         1 UNK         0.0940 
     87 H87        29.7816   26.0045   -3.0390 H         1 UNK         0.0940 
     88 H88        30.0542   28.3963   -2.0233 H         1 UNK         0.0703 
     89 H89        27.6024   26.8473   -1.3271 H         1 UNK         0.3081 
     90 H90        25.6022   29.6071   -2.2613 H         1 UNK         0.0719 
     91 H91        25.8356   28.5003   -4.4945 H         1 UNK         0.0809 
     92 H92        25.7584   26.9171   -3.7341 H         1 UNK         0.0809 
     93 H93        24.3615   27.9942   -3.6879 H         1 UNK         0.0809 
     94 H94        24.9397   26.9680   -1.3957 H         1 UNK         0.2990 
     95 H95        25.7868   27.1524    1.9458 H         1 UNK         0.0690 
     96 H96        23.7888   28.6398    2.1672 H         1 UNK         0.0788 
     97 H97        23.3967   26.9807    2.5804 H         1 UNK         0.0788 
     98 H98        22.9043   27.6429    1.0200 H         1 UNK         0.0788 
     99 H99        23.9717   25.3839    0.7581 H         1 UNK         0.2993 
    100 H100       24.6307   23.2855    0.3301 H         1 UNK         0.0949 
    101 H101       24.9815   22.4863   -2.0399 H         1 UNK         0.0767 
    102 H102       24.3546   24.1268   -2.0167 H         1 UNK         0.0767 
    103 H103       26.0606   23.8457   -2.3458 H         1 UNK         0.0767 
    104 H104       27.5432   23.2484    0.0027 H         1 UNK         0.3013 
    105 H105       28.4478   26.3921    0.5024 H         1 UNK         0.3121 
    106 H106       30.4311   26.9779    2.5148 H         1 UNK         0.0774 
    107 H107       28.9038   25.6638    3.9639 H         1 UNK         0.0815 
    108 H108       27.6774   25.6548    2.7052 H         1 UNK         0.0815 
    109 H109       29.2145   24.8346    2.4525 H         1 UNK         0.0815 
    110 H110       30.1718   29.3686    2.0034 H         1 UNK         0.2987 
    111 H111       28.0021   30.8670    3.2034 H         1 UNK         0.0949 
    112 H112       29.4364   32.8163    2.6186 H         1 UNK         0.0806 
    113 H113       30.7825   31.7469    2.2500 H         1 UNK         0.0806 
    114 H114       29.3218   31.7064    1.2625 H         1 UNK         0.0806 
    115 H115       28.4811   29.2852    5.1846 H         1 UNK         0.3010 
    116 H116       28.9865   28.9762    7.3369 H         1 UNK         0.0829 
    117 H117       29.2284   32.0406    7.4583 H         1 UNK         0.0813 
    118 H118       27.7691   31.0951    7.7014 H         1 UNK         0.0813 
    119 H119       29.0829   30.9680    8.8517 H         1 UNK         0.0813 
    120 H120       31.1313   31.4924    8.0753 H         1 UNK         0.3038 
    121 H121       33.5183   29.7327    7.7891 H         1 UNK         0.0769 
    122 H122       33.0843   32.3028    9.4058 H         1 UNK         0.0811 
    123 H123       34.5327   31.3066    9.4176 H         1 UNK         0.0811 
    124 H124       33.0285   30.6620   10.0513 H         1 UNK         0.0811 
    125 H125       31.9961   32.2872    6.0481 H         1 UNK         0.3204 
    126 H126       34.3252   33.9079    5.5155 H         1 UNK         0.0748 
    127 H127       32.8357   35.1235    3.9903 H         1 UNK         0.0771 
    128 H128       31.6365   33.8448    4.0479 H         1 UNK         0.0771 
    129 H129       31.9763   34.8052    5.4882 H         1 UNK         0.0771 
    130 H130       33.0799   30.9800    4.1006 H         1 UNK         0.2980 
    131 H131       34.5203   31.2156    1.5970 H         1 UNK         0.0545 
    132 H132       37.2094   29.8390    4.2373 H         1 UNK         0.3459 
    133 H133       35.7604   30.6585    4.7641 H         1 UNK         0.3459 
    134 H134       33.8039   28.9115    1.1652 H         1 UNK         0.0616 
    135 H135       32.4819   29.9274    1.6385 H         1 UNK         0.0616 
    136 H136       34.8645   27.1550    2.4801 H         1 UNK         0.0634 
    137 H137       34.2132   26.3711    3.8875 H         1 UNK         0.0634 
@<TRIPOS>BOND
     1    1    2 1    
     2    1   72 1    
     3    1   73 1    
     4    1   74 1    
     5    2    3 2    
     6    2    4 am   BACKBONE|DICT|INTERRES
     7    4    5 1    
     8    4   75 1    
     9    5    6 1    
    10    5   35 1    
    11    5   76 1    
    12    6    7 1    
    13    6   77 1    
    14    6   78 1    
    15    7    8 1    
    16    8    9 1    
    17    8   79 1    
    18    8   80 1    
    19    9   10 ar   
    20    9   14 ar   
    21   10   11 ar   
    22   10   81 1    
    23   11   12 ar   
    24   11   71 1    
    25   12   13 ar   
    26   12   82 1    
    27   13   14 ar   
    28   13   15 1    
    29   14   83 1    
    30   15   16 1    
    31   15   84 1    
    32   15   85 1    
    33   16   17 1    
    34   17   18 1    
    35   17   86 1    
    36   17   87 1    
    37   18   19 1    
    38   18   37 1    
    39   18   88 1    
    40   19   20 am   BACKBONE|DICT|INTERRES
    41   19   89 1    
    42   20   21 2    
    43   20   22 1    
    44   22   23 1    
    45   22   24 1    
    46   22   90 1    
    47   23   91 1    
    48   23   92 1    
    49   23   93 1    
    50   24   25 am   BACKBONE|DICT|INTERRES
    51   24   94 1    
    52   25   26 2    
    53   25   27 1    
    54   27   28 1    
    55   27   29 1    
    56   27   95 1    
    57   28   96 1    
    58   28   97 1    
    59   28   98 1    
    60   29   30 am   BACKBONE|DICT|INTERRES
    61   29   99 1    
    62   30   31 2    
    63   30   32 1    
    64   32   33 1    
    65   32   34 1    
    66   32  100 1    
    67   33  101 1    
    68   33  102 1    
    69   33  103 1    
    70   34   35 am   BACKBONE|DICT|INTERRES
    71   34  104 1    
    72   35   36 2    
    73   37   38 2    
    74   37   39 am   BACKBONE|DICT|INTERRES
    75   39   40 1    
    76   39  105 1    
    77   40   41 1    
    78   40   42 1    
    79   40  106 1    
    80   41  107 1    
    81   41  108 1    
    82   41  109 1    
    83   42   43 2    
    84   42   44 am   BACKBONE|DICT|INTERRES
    85   44   45 1    
    86   44  110 1    
    87   45   46 1    
    88   45   47 1    
    89   45  111 1    
    90   46  112 1    
    91   46  113 1    
    92   46  114 1    
    93   47   48 2    
    94   47   49 am   BACKBONE|DICT|INTERRES
    95   49   50 1    
    96   49  115 1    
    97   50   51 1    
    98   50   52 1    
    99   50  116 1    
   100   51  117 1    
   101   51  118 1    
   102   51  119 1    
   103   52   53 2    
   104   52   54 am   BACKBONE|DICT|INTERRES
   105   54   55 1    
   106   54  120 1    
   107   55   56 1    
   108   55   57 1    
   109   55  121 1    
   110   56  122 1    
   111   56  123 1    
   112   56  124 1    
   113   57   58 2    
   114   57   59 am   BACKBONE|DICT|INTERRES
   115   59   60 1    
   116   59  125 1    
   117   60   61 1    
   118   60   62 1    
   119   60  126 1    
   120   61  127 1    
   121   61  128 1    
   122   61  129 1    
   123   62   63 2    
   124   62   64 am   BACKBONE|DICT|INTERRES
   125   64   65 1    
   126   64  130 1    
   127   65   66 1    
   128   65   69 1    
   129   65  131 1    
   130   66   67 am   BACKBONE|DICT|INTERRES
   131   66   68 2    
   132   67  132 1    
   133   67  133 1    
   134   69   70 1    
   135   69  134 1    
   136   69  135 1    
   137   70   71 1    
   138   71  136 1    
   139   71  137 1    
@<TRIPOS>SUBSTRUCTURE
     1 UNK         1 GROUP             0       ****    0 ROOT    
