@<TRIPOS>MOLECULE
3R136
137   139    1
SMALL
USER_CHARGES


@<TRIPOS>ATOM
      1 CA         24.9541   18.5090    0.7445 C.3       0 UNK        -0.1979 
      2 C          26.1935   18.8620   -0.0652 C.2       0 UNK         0.4864 
      3 O          26.3629   18.3525   -1.1746 O.2       0 UNK        -0.5359 
      4 N          27.0607   19.7203    0.4865 N.am      1 UNK        -0.4318 
      5 CA         28.2742   20.2304   -0.1589 C.3       1 UNK         0.0824 
      6 C6         29.4184   20.4307    0.8741 C.3       12 UNK        -0.0944 
      7 S7         29.0955   21.6951    2.1588 S.3       12 UNK        -0.2672 
      8 C8         30.5046   22.8313    1.9117 C.3       12 UNK         0.0333 
      9 C9         30.7961   23.7355    3.1086 C.ar      12 UNK        -0.0807 
     10 C10        32.1281   24.0156    3.4293 C.ar      12 UNK        -0.0894 
     11 C11        32.4504   24.8380    4.5130 C.ar      12 UNK        -0.0804 
     12 C12        31.4201   25.3643    5.2970 C.ar      12 UNK        -0.0824 
     13 C13        30.0789   25.0972    4.9967 C.ar      12 UNK        -0.0762 
     14 C14        29.7753   24.2928    3.8915 C.ar      12 UNK        -0.0782 
     15 C15        28.9592   25.5920    5.9114 C.3       12 UNK         0.0230 
     16 S16        29.1898   27.3061    6.5049 S.3       12 UNK        -0.2608 
     17 C17        27.8603   28.2269    5.6612 C.3       12 UNK        -0.0989 
     18 CA         28.3941   29.1220    4.5190 C.3       5 UNK         0.0716 
     19 N          29.0570   28.3407    3.4740 N.am      5 UNK        -0.4135 
     20 C          29.7723   28.8460    2.4610 C.2       4 UNK         0.5031 
     21 O          30.0290   30.0442    2.3348 O.2       4 UNK        -0.5229 
     22 CA         30.2298   27.8460    1.3798 C.3       4 UNK         0.0329 
     23 CB         31.6270   27.2989    1.7028 C.3       4 UNK        -0.2001 
     24 N          29.3150   26.7135    1.1856 N.am      4 UNK        -0.4303 
     25 C          28.0152   26.8078    0.8701 C.2       3 UNK         0.5044 
     26 O          27.4262   27.8804    0.7289 O.2       3 UNK        -0.5152 
     27 CA         27.2543   25.4764    0.7337 C.3       3 UNK         0.0319 
     28 CB         25.7871   25.6613    0.2925 C.3       3 UNK        -0.2001 
     29 N          27.9450   24.5162   -0.1345 N.am      3 UNK        -0.4354 
     30 C          28.2425   24.6583   -1.4369 C.2       2 UNK         0.4964 
     31 O          27.9818   25.6653   -2.0958 O.2       2 UNK        -0.5047 
     32 CA         28.9651   23.4868   -2.1374 C.3       2 UNK         0.0288 
     33 CB         30.4011   23.8944   -2.5109 C.3       2 UNK        -0.2113 
     34 N          29.0213   22.2364   -1.3693 N.am      2 UNK        -0.4145 
     35 C          27.9696   21.4816   -1.0178 C.2       1 UNK         0.5006 
     36 O          26.8089   21.7582   -1.3326 O.2       1 UNK        -0.5103 
     37 C          27.2619   30.0111    3.9634 C.2       5 UNK         0.5055 
     38 O          27.1333   31.1554    4.3985 O.2       5 UNK        -0.5220 
     39 N          26.4782   29.4942    3.0037 N.am      6 UNK        -0.4450 
     40 CA         25.3991   30.2313    2.3355 C.3       6 UNK         0.0367 
     41 CB         24.4376   29.2479    1.6490 C.3       6 UNK        -0.1929 
     42 C          25.9431   31.2554    1.3266 C.2       6 UNK         0.5070 
     43 O          25.3411   32.3145    1.1519 O.2       6 UNK        -0.5237 
     44 N          27.0978   30.9445    0.7206 N.am      7 UNK        -0.4739 
     45 CA         27.8819   31.8593   -0.1155 C.3       7 UNK         0.0276 
     46 CB         28.8898   31.0403   -0.9388 C.3       7 UNK        -0.1927 
     47 C          28.6073   32.9599    0.6886 C.2       7 UNK         0.5013 
     48 O          29.1422   33.8852    0.0769 O.2       7 UNK        -0.5193 
     49 N          28.6174   32.8382    2.0261 N.am      8 UNK        -0.4253 
     50 CA         29.2553   33.7171    3.0119 C.3       8 UNK         0.0242 
     51 CB         28.6057   35.1177    3.0081 C.3       8 UNK        -0.2000 
     52 C          30.7894   33.7576    2.8762 C.2       8 UNK         0.4948 
     53 O          31.3972   34.8142    3.0606 O.2       8 UNK        -0.5275 
     54 N          31.3903   32.6023    2.5695 N.am      9 UNK        -0.4246 
     55 CA         32.8297   32.4189    2.4073 C.3       9 UNK         0.0261 
     56 CB         33.2185   32.6559    0.9345 C.3       9 UNK        -0.1959 
     57 C          33.1902   31.0175    2.9113 C.2       9 UNK         0.5033 
     58 O          33.6778   30.1928    2.1373 O.2       9 UNK        -0.5390 
     59 N          32.8920   30.7628    4.1940 N.am      10 UNK        -0.4215 
     60 CA         32.9539   29.4670    4.8821 C.3       10 UNK         0.0240 
     61 CB         32.1928   29.5842    6.2162 C.3       10 UNK        -0.1982 
     62 C          34.3766   28.8967    5.0710 C.2       10 UNK         0.4970 
     63 O          34.7915   28.6328    6.2008 O.2       10 UNK        -0.4916 
     64 N          35.0808   28.6905    3.9548 N.am      11 UNK        -0.4279 
     65 CA         36.3728   27.9947    3.8290 C.3       11 UNK         0.1003 
     66 C          37.5886   28.7332    4.4666 C.2       11 UNK         0.5709 
     67 N          37.4831   30.0133    4.8030 N.am      11 UNK        -0.7358 
     68 O          38.6584   28.1501    4.6286 O.2       11 UNK        -0.4999 
     69 C69        36.2973   26.4924    4.2363 C.3       12 UNK        -0.0954 
     70 S70        34.9157   25.6089    3.4287 S.3       12 UNK        -0.2268 
     71 C71        33.9030   25.1368    4.8715 C.3       12 UNK         0.0203 
     72 H72        24.0558   18.7957    0.1984 H         1 UNK         0.0888 
     73 H73        24.9163   17.4350    0.9245 H         1 UNK         0.0888 
     74 H74        24.9398   19.0151    1.7097 H         1 UNK         0.0888 
     75 H75        26.8554   20.1238    1.3897 H         1 UNK         0.3017 
     76 H76        28.6254   19.4751   -0.8656 H         1 UNK         0.0873 
     77 H77        29.5950   19.4866    1.3922 H         1 UNK         0.0745 
     78 H78        30.3599   20.6405    0.3648 H         1 UNK         0.0745 
     79 H79        31.3902   22.2313    1.6955 H         1 UNK         0.0705 
     80 H80        30.3306   23.4495    1.0318 H         1 UNK         0.0705 
     81 H81        32.9237   23.5915    2.8319 H         1 UNK         0.1334 
     82 H82        31.6644   25.9703    6.1586 H         1 UNK         0.1417 
     83 H83        28.7425   24.0680    3.6642 H         1 UNK         0.1562 
     84 H84        28.9273   24.9369    6.7830 H         1 UNK         0.0748 
     85 H85        27.9891   25.4852    5.4253 H         1 UNK         0.0748 
     86 H86        27.3723   28.8418    6.4207 H         1 UNK         0.0940 
     87 H87        27.0909   27.5433    5.2987 H         1 UNK         0.0940 
     88 H88        29.1419   29.7972    4.9382 H         1 UNK         0.0703 
     89 H89        28.9400   27.3404    3.5207 H         1 UNK         0.3081 
     90 H90        30.2827   28.3845    0.4322 H         1 UNK         0.0719 
     91 H91        31.6551   26.8163    2.6788 H         1 UNK         0.0809 
     92 H92        31.9601   26.5749    0.9591 H         1 UNK         0.0809 
     93 H93        32.3636   28.0989    1.7168 H         1 UNK         0.0809 
     94 H94        29.7184   25.7936    1.2773 H         1 UNK         0.2990 
     95 H95        27.2387   25.0305    1.7292 H         1 UNK         0.0690 
     96 H96        25.2778   24.7023    0.1975 H         1 UNK         0.0788 
     97 H97        25.7126   26.1767   -0.6658 H         1 UNK         0.0788 
     98 H98        25.2321   26.2507    1.0228 H         1 UNK         0.0788 
     99 H99        28.1856   23.6358    0.2973 H         1 UNK         0.2993 
    100 H100       28.4143   23.2841   -3.0586 H         1 UNK         0.0949 
    101 H101       30.8992   23.1146   -3.0875 H         1 UNK         0.0767 
    102 H102       30.4061   24.7970   -3.1239 H         1 UNK         0.0767 
    103 H103       31.0062   24.0993   -1.6266 H         1 UNK         0.0767 
    104 H104       29.9421   21.9301   -1.0916 H         1 UNK         0.3013 
    105 H105       26.7032   28.5871    2.6155 H         1 UNK         0.3121 
    106 H106       24.8361   30.7786    3.0949 H         1 UNK         0.0774 
    107 H107       24.9183   28.7141    0.8290 H         1 UNK         0.0815 
    108 H108       23.5807   29.7764    1.2292 H         1 UNK         0.0815 
    109 H109       24.0504   28.5107    2.3522 H         1 UNK         0.0815 
    110 H110       27.4807   30.0176    0.8713 H         1 UNK         0.2987 
    111 H111       27.1996   32.3590   -0.8066 H         1 UNK         0.0949 
    112 H112       29.6479   30.5812   -0.3048 H         1 UNK         0.0806 
    113 H113       28.3967   30.2484   -1.5031 H         1 UNK         0.0806 
    114 H114       29.4115   31.6743   -1.6569 H         1 UNK         0.0806 
    115 H115       28.1622   32.0220    2.4125 H         1 UNK         0.3010 
    116 H116       29.0545   33.2681    3.9858 H         1 UNK         0.0829 
    117 H117       28.8164   35.6604    2.0862 H         1 UNK         0.0813 
    118 H118       27.5234   35.0524    3.1200 H         1 UNK         0.0813 
    119 H119       28.9798   35.7241    3.8339 H         1 UNK         0.0813 
    120 H120       30.8255   31.7603    2.4560 H         1 UNK         0.3038 
    121 H121       33.3732   33.1325    3.0303 H         1 UNK         0.0769 
    122 H122       34.2890   32.5117    0.7838 H         1 UNK         0.0811 
    123 H123       32.6963   31.9692    0.2668 H         1 UNK         0.0811 
    124 H124       32.9798   33.6722    0.6208 H         1 UNK         0.0811 
    125 H125       32.5169   31.5261    4.7385 H         1 UNK         0.3204 
    126 H126       32.4142   28.7454    4.2660 H         1 UNK         0.0748 
    127 H127       32.1415   28.6196    6.7233 H         1 UNK         0.0771 
    128 H128       32.6763   30.2861    6.8968 H         1 UNK         0.0771 
    129 H129       31.1675   29.9181    6.0651 H         1 UNK         0.0771 
    130 H130       34.6697   29.0262    3.0853 H         1 UNK         0.2980 
    131 H131       36.5861   28.0149    2.7600 H         1 UNK         0.0545 
    132 H132       38.2773   30.4865    5.2040 H         1 UNK         0.3459 
    133 H133       36.6131   30.5031    4.6723 H         1 UNK         0.3459 
    134 H134       37.2178   25.9788    3.9541 H         1 UNK         0.0616 
    135 H135       36.2213   26.3939    5.3203 H         1 UNK         0.0616 
    136 H136       33.9424   25.9392    5.6092 H         1 UNK         0.0634 
    137 H137       34.3441   24.2581    5.3433 H         1 UNK         0.0634 
@<TRIPOS>BOND
     1    1    2 1    
     2    1   72 1    
     3    1   73 1    
     4    1   74 1    
     5    2    3 2    
     6    2    4 am   BACKBONE|DICT|INTERRES
     7    4    5 1    
     8    4   75 1    
     9    5    6 1    
    10    5   35 1    
    11    5   76 1    
    12    6    7 1    
    13    6   77 1    
    14    6   78 1    
    15    7    8 1    
    16    8    9 1    
    17    8   79 1    
    18    8   80 1    
    19    9   10 ar   
    20    9   14 ar   
    21   10   11 ar   
    22   10   81 1    
    23   11   12 ar   
    24   11   71 1    
    25   12   13 ar   
    26   12   82 1    
    27   13   14 ar   
    28   13   15 1    
    29   14   83 1    
    30   15   16 1    
    31   15   84 1    
    32   15   85 1    
    33   16   17 1    
    34   17   18 1    
    35   17   86 1    
    36   17   87 1    
    37   18   19 1    
    38   18   37 1    
    39   18   88 1    
    40   19   20 am   BACKBONE|DICT|INTERRES
    41   19   89 1    
    42   20   21 2    
    43   20   22 1    
    44   22   23 1    
    45   22   24 1    
    46   22   90 1    
    47   23   91 1    
    48   23   92 1    
    49   23   93 1    
    50   24   25 am   BACKBONE|DICT|INTERRES
    51   24   94 1    
    52   25   26 2    
    53   25   27 1    
    54   27   28 1    
    55   27   29 1    
    56   27   95 1    
    57   28   96 1    
    58   28   97 1    
    59   28   98 1    
    60   29   30 am   BACKBONE|DICT|INTERRES
    61   29   99 1    
    62   30   31 2    
    63   30   32 1    
    64   32   33 1    
    65   32   34 1    
    66   32  100 1    
    67   33  101 1    
    68   33  102 1    
    69   33  103 1    
    70   34   35 am   BACKBONE|DICT|INTERRES
    71   34  104 1    
    72   35   36 2    
    73   37   38 2    
    74   37   39 am   BACKBONE|DICT|INTERRES
    75   39   40 1    
    76   39  105 1    
    77   40   41 1    
    78   40   42 1    
    79   40  106 1    
    80   41  107 1    
    81   41  108 1    
    82   41  109 1    
    83   42   43 2    
    84   42   44 am   BACKBONE|DICT|INTERRES
    85   44   45 1    
    86   44  110 1    
    87   45   46 1    
    88   45   47 1    
    89   45  111 1    
    90   46  112 1    
    91   46  113 1    
    92   46  114 1    
    93   47   48 2    
    94   47   49 am   BACKBONE|DICT|INTERRES
    95   49   50 1    
    96   49  115 1    
    97   50   51 1    
    98   50   52 1    
    99   50  116 1    
   100   51  117 1    
   101   51  118 1    
   102   51  119 1    
   103   52   53 2    
   104   52   54 am   BACKBONE|DICT|INTERRES
   105   54   55 1    
   106   54  120 1    
   107   55   56 1    
   108   55   57 1    
   109   55  121 1    
   110   56  122 1    
   111   56  123 1    
   112   56  124 1    
   113   57   58 2    
   114   57   59 am   BACKBONE|DICT|INTERRES
   115   59   60 1    
   116   59  125 1    
   117   60   61 1    
   118   60   62 1    
   119   60  126 1    
   120   61  127 1    
   121   61  128 1    
   122   61  129 1    
   123   62   63 2    
   124   62   64 am   BACKBONE|DICT|INTERRES
   125   64   65 1    
   126   64  130 1    
   127   65   66 1    
   128   65   69 1    
   129   65  131 1    
   130   66   67 am   BACKBONE|DICT|INTERRES
   131   66   68 2    
   132   67  132 1    
   133   67  133 1    
   134   69   70 1    
   135   69  134 1    
   136   69  135 1    
   137   70   71 1    
   138   71  136 1    
   139   71  137 1    
@<TRIPOS>SUBSTRUCTURE
     1 UNK         1 GROUP             0       ****    0 ROOT    
