@<TRIPOS>MOLECULE
3R136
137   139    1
SMALL
USER_CHARGES


@<TRIPOS>ATOM
      1 CA         29.3498   22.7596   -3.6504 C.3       0 UNK        -0.1979 
      2 C          29.1271   23.0500   -2.1750 C.2       0 UNK         0.4864 
      3 O          28.6358   24.1277   -1.8339 O.2       0 UNK        -0.5359 
      4 N          29.4628   22.0943   -1.2971 N.am      1 UNK        -0.4318 
      5 CA         29.3982   22.1658    0.1733 C.3       1 UNK         0.0824 
      6 C6         30.2874   21.0703    0.8147 C.3       12 UNK        -0.0944 
      7 S7         32.0545   21.3931    0.4987 S.3       12 UNK        -0.2672 
      8 C8         32.6372   21.9043    2.1473 C.3       12 UNK         0.0333 
      9 C9         31.9927   23.1995    2.6278 C.ar      12 UNK        -0.0807 
     10 C10        32.4857   24.4338    2.1982 C.ar      12 UNK        -0.0894 
     11 C11        31.9557   25.6284    2.7003 C.ar      12 UNK        -0.0804 
     12 C12        30.9035   25.5740    3.6206 C.ar      12 UNK        -0.0824 
     13 C13        30.3575   24.3462    4.0181 C.ar      12 UNK        -0.0762 
     14 C14        30.9257   23.1657    3.5302 C.ar      12 UNK        -0.0782 
     15 C15        29.1831   24.2356    4.9944 C.3       12 UNK         0.0230 
     16 S16        28.0849   25.6931    5.1087 S.3       12 UNK        -0.2608 
     17 C17        27.4077   25.8382    3.4184 C.3       12 UNK        -0.0989 
     18 CA         27.7996   27.1892    2.7594 C.3       5 UNK         0.0716 
     19 N          28.1211   27.0325    1.3399 N.am      5 UNK        -0.4135 
     20 C          28.8500   27.8894    0.6110 C.2       4 UNK         0.5031 
     21 O          29.3564   28.9128    1.0684 O.2       4 UNK        -0.5229 
     22 CA         28.9849   27.5812   -0.8901 C.3       4 UNK         0.0329 
     23 CB         30.3015   26.8406   -1.1717 C.3       4 UNK        -0.2001 
     24 N          27.8600   26.7961   -1.4103 N.am      4 UNK        -0.4303 
     25 C          26.6032   27.2539   -1.5161 C.2       3 UNK         0.5044 
     26 O          26.2697   28.3987   -1.2138 O.2       3 UNK        -0.5152 
     27 CA         25.5307   26.2506   -1.9704 C.3       3 UNK         0.0319 
     28 CB         25.6081   26.0216   -3.4884 C.3       3 UNK        -0.2001 
     29 N          25.6328   24.9654   -1.2752 N.am      3 UNK        -0.4354 
     30 C          25.4482   24.7818    0.0418 C.2       2 UNK         0.4964 
     31 O          25.1314   25.6743    0.8266 O.2       2 UNK        -0.5047 
     32 CA         25.7634   23.3835    0.5788 C.3       2 UNK         0.0288 
     33 CB         24.7686   22.3260    0.0647 C.3       2 UNK        -0.2113 
     34 N          27.1288   23.0623    0.1846 N.am      2 UNK        -0.4145 
     35 C          27.9522   22.1670    0.7297 C.2       1 UNK         0.5006 
     36 O          27.6183   21.3944    1.6300 O.2       1 UNK        -0.5103 
     37 C          26.7846   28.3236    3.0402 C.2       5 UNK         0.5055 
     38 O          26.6001   28.6862    4.2020 O.2       5 UNK        -0.5220 
     39 N          26.1957   28.9306    1.9958 N.am      6 UNK        -0.4450 
     40 CA         25.4700   30.2022    2.0983 C.3       6 UNK         0.0367 
     41 CB         24.7124   30.4712    0.7892 C.3       6 UNK        -0.1929 
     42 C          26.3935   31.3912    2.4399 C.2       6 UNK         0.5070 
     43 O          25.9087   32.3958    2.9605 O.2       6 UNK        -0.5237 
     44 N          27.6985   31.2531    2.1658 N.am      7 UNK        -0.4739 
     45 CA         28.7542   32.1983    2.5211 C.3       7 UNK         0.0276 
     46 CB         29.2555   32.8986    1.2441 C.3       7 UNK        -0.1927 
     47 C          29.8692   31.4430    3.2635 C.2       7 UNK         0.5013 
     48 O          31.0443   31.5937    2.9247 O.2       7 UNK        -0.5193 
     49 N          29.4764   30.6355    4.2643 N.am      8 UNK        -0.4253 
     50 CA         30.3224   29.7034    5.0269 C.3       8 UNK         0.0242 
     51 CB         29.5038   29.0804    6.1682 C.3       8 UNK        -0.2000 
     52 C          31.6263   30.2890    5.5934 C.2       8 UNK         0.4948 
     53 O          32.6176   29.5647    5.6811 O.2       8 UNK        -0.5275 
     54 N          31.6192   31.5898    5.9200 N.am      9 UNK        -0.4246 
     55 CA         32.7813   32.3664    6.3616 C.3       9 UNK         0.0261 
     56 CB         32.3432   33.8097    6.6568 C.3       9 UNK        -0.1959 
     57 C          33.9636   32.3557    5.3731 C.2       9 UNK         0.5033 
     58 O          35.1071   32.4714    5.8165 O.2       9 UNK        -0.5390 
     59 N          33.6912   32.1655    4.0716 N.am      10 UNK        -0.4215 
     60 CA         34.7083   31.9858    3.0301 C.3       10 UNK         0.0240 
     61 CB         34.0352   32.0163    1.6484 C.3       10 UNK        -0.1982 
     62 C          35.5358   30.6956    3.1931 C.2       10 UNK         0.4970 
     63 O          36.6640   30.6486    2.7010 O.2       10 UNK        -0.4916 
     64 N          34.9768   29.6923    3.8821 N.am      11 UNK        -0.4279 
     65 CA         35.6406   28.4309    4.2387 C.3       11 UNK         0.1003 
     66 C          36.1978   28.4306    5.6930 C.2       11 UNK         0.5709 
     67 N          36.1722   29.5396    6.4257 N.am      11 UNK        -0.7358 
     68 O          36.6917   27.4083    6.1634 O.2       11 UNK        -0.4999 
     69 C69        34.7233   27.2095    3.9587 C.3       12 UNK        -0.0954 
     70 S70        34.3065   27.0710    2.1876 S.3       12 UNK        -0.2268 
     71 C71        32.4865   26.9805    2.2296 C.3       12 UNK         0.0203 
     72 H72        29.7832   21.7728   -3.8115 H         1 UNK         0.0888 
     73 H73        28.4035   22.8087   -4.1884 H         1 UNK         0.0888 
     74 H74        30.0240   23.5012   -4.0778 H         1 UNK         0.0888 
     75 H75        29.8444   21.2303   -1.6547 H         1 UNK         0.3017 
     76 H76        29.8119   23.1336    0.4674 H         1 UNK         0.0873 
     77 H77        30.1314   21.0004    1.8914 H         1 UNK         0.0745 
     78 H78        30.0315   20.0865    0.4175 H         1 UNK         0.0745 
     79 H79        33.7201   22.0323    2.1098 H         1 UNK         0.0705 
     80 H80        32.4556   21.0978    2.8596 H         1 UNK         0.0705 
     81 H81        33.2986   24.4620    1.4855 H         1 UNK         0.1334 
     82 H82        30.5087   26.4934    4.0235 H         1 UNK         0.1417 
     83 H83        30.5387   22.2124    3.8641 H         1 UNK         0.1562 
     84 H84        29.5845   24.0340    5.9883 H         1 UNK         0.0748 
     85 H85        28.5671   23.3737    4.7320 H         1 UNK         0.0748 
     86 H86        26.3243   25.7050    3.4506 H         1 UNK         0.0940 
     87 H87        27.7847   24.9990    2.8317 H         1 UNK         0.0940 
     88 H88        28.7234   27.5369    3.2226 H         1 UNK         0.0703 
     89 H89        27.6986   26.2486    0.8672 H         1 UNK         0.3081 
     90 H90        29.0056   28.5334   -1.4245 H         1 UNK         0.0719 
     91 H91        30.3814   25.9186   -0.5937 H         1 UNK         0.0809 
     92 H92        30.3948   26.5822   -2.2267 H         1 UNK         0.0809 
     93 H93        31.1584   27.4649   -0.9173 H         1 UNK         0.0809 
     94 H94        28.0651   25.8334   -1.6758 H         1 UNK         0.2990 
     95 H95        24.5537   26.6803   -1.7383 H         1 UNK         0.0690 
     96 H96        26.5505   25.5565   -3.7814 H         1 UNK         0.0788 
     97 H97        25.5276   26.9655   -4.0296 H         1 UNK         0.0788 
     98 H98        24.7962   25.3817   -3.8345 H         1 UNK         0.0788 
     99 H99        25.8930   24.1721   -1.8433 H         1 UNK         0.2993 
    100 H100       25.7107   23.4199    1.6693 H         1 UNK         0.0949 
    101 H101       24.8237   22.2038   -1.0175 H         1 UNK         0.0767 
    102 H102       24.9586   21.3529    0.5179 H         1 UNK         0.0767 
    103 H103       23.7431   22.6026    0.3132 H         1 UNK         0.0767 
    104 H104       27.5316   23.6336   -0.5580 H         1 UNK         0.3013 
    105 H105       26.3576   28.5784    1.0602 H         1 UNK         0.3121 
    106 H106       24.7376   30.1102    2.9032 H         1 UNK         0.0774 
    107 H107       24.0875   31.3608    0.8782 H         1 UNK         0.0815 
    108 H108       25.3953   30.6379   -0.0446 H         1 UNK         0.0815 
    109 H109       24.0583   29.6392    0.5275 H         1 UNK         0.0815 
    110 H110       28.0265   30.3860    1.7513 H         1 UNK         0.2987 
    111 H111       28.3766   32.9589    3.2079 H         1 UNK         0.0949 
    112 H112       29.6803   32.1848    0.5368 H         1 UNK         0.0806 
    113 H113       28.4478   33.4300    0.7408 H         1 UNK         0.0806 
    114 H114       30.0301   33.6307    1.4763 H         1 UNK         0.0806 
    115 H115       28.4850   30.5839    4.4553 H         1 UNK         0.3010 
    116 H116       30.6065   28.9089    4.3363 H         1 UNK         0.0829 
    117 H117       30.0995   28.3581    6.7285 H         1 UNK         0.0813 
    118 H118       29.1555   29.8351    6.8743 H         1 UNK         0.0813 
    119 H119       28.6323   28.5474    5.7938 H         1 UNK         0.0813 
    120 H120       30.7542   32.0973    5.8050 H         1 UNK         0.3038 
    121 H121       33.1354   31.9172    7.2918 H         1 UNK         0.0769 
    122 H122       33.1838   34.4074    7.0128 H         1 UNK         0.0811 
    123 H123       31.5755   33.8428    7.4301 H         1 UNK         0.0811 
    124 H124       31.9477   34.3015    5.7670 H         1 UNK         0.0811 
    125 H125       32.7228   32.0460    3.7799 H         1 UNK         0.3204 
    126 H126       35.3998   32.8285    3.0926 H         1 UNK         0.0748 
    127 H127       34.7771   31.9569    0.8509 H         1 UNK         0.0771 
    128 H128       33.3485   31.1786    1.5172 H         1 UNK         0.0771 
    129 H129       33.4712   32.9373    1.4999 H         1 UNK         0.0771 
    130 H130       34.0632   29.8231    4.3031 H         1 UNK         0.2980 
    131 H131       36.5244   28.3081    3.6104 H         1 UNK         0.0545 
    132 H132       35.7953   30.4022    6.0565 H         1 UNK         0.3459 
    133 H133       36.5468   29.5161    7.3605 H         1 UNK         0.3459 
    134 H134       35.2148   26.2786    4.2465 H         1 UNK         0.0616 
    135 H135       33.8115   27.2707    4.5554 H         1 UNK         0.0616 
    136 H136       32.1107   27.1643    1.2240 H         1 UNK         0.0634 
    137 H137       32.1075   27.7939    2.8495 H         1 UNK         0.0634 
@<TRIPOS>BOND
     1    1    2 1    
     2    1   72 1    
     3    1   73 1    
     4    1   74 1    
     5    2    3 2    
     6    2    4 am   BACKBONE|DICT|INTERRES
     7    4    5 1    
     8    4   75 1    
     9    5    6 1    
    10    5   35 1    
    11    5   76 1    
    12    6    7 1    
    13    6   77 1    
    14    6   78 1    
    15    7    8 1    
    16    8    9 1    
    17    8   79 1    
    18    8   80 1    
    19    9   10 ar   
    20    9   14 ar   
    21   10   11 ar   
    22   10   81 1    
    23   11   12 ar   
    24   11   71 1    
    25   12   13 ar   
    26   12   82 1    
    27   13   14 ar   
    28   13   15 1    
    29   14   83 1    
    30   15   16 1    
    31   15   84 1    
    32   15   85 1    
    33   16   17 1    
    34   17   18 1    
    35   17   86 1    
    36   17   87 1    
    37   18   19 1    
    38   18   37 1    
    39   18   88 1    
    40   19   20 am   BACKBONE|DICT|INTERRES
    41   19   89 1    
    42   20   21 2    
    43   20   22 1    
    44   22   23 1    
    45   22   24 1    
    46   22   90 1    
    47   23   91 1    
    48   23   92 1    
    49   23   93 1    
    50   24   25 am   BACKBONE|DICT|INTERRES
    51   24   94 1    
    52   25   26 2    
    53   25   27 1    
    54   27   28 1    
    55   27   29 1    
    56   27   95 1    
    57   28   96 1    
    58   28   97 1    
    59   28   98 1    
    60   29   30 am   BACKBONE|DICT|INTERRES
    61   29   99 1    
    62   30   31 2    
    63   30   32 1    
    64   32   33 1    
    65   32   34 1    
    66   32  100 1    
    67   33  101 1    
    68   33  102 1    
    69   33  103 1    
    70   34   35 am   BACKBONE|DICT|INTERRES
    71   34  104 1    
    72   35   36 2    
    73   37   38 2    
    74   37   39 am   BACKBONE|DICT|INTERRES
    75   39   40 1    
    76   39  105 1    
    77   40   41 1    
    78   40   42 1    
    79   40  106 1    
    80   41  107 1    
    81   41  108 1    
    82   41  109 1    
    83   42   43 2    
    84   42   44 am   BACKBONE|DICT|INTERRES
    85   44   45 1    
    86   44  110 1    
    87   45   46 1    
    88   45   47 1    
    89   45  111 1    
    90   46  112 1    
    91   46  113 1    
    92   46  114 1    
    93   47   48 2    
    94   47   49 am   BACKBONE|DICT|INTERRES
    95   49   50 1    
    96   49  115 1    
    97   50   51 1    
    98   50   52 1    
    99   50  116 1    
   100   51  117 1    
   101   51  118 1    
   102   51  119 1    
   103   52   53 2    
   104   52   54 am   BACKBONE|DICT|INTERRES
   105   54   55 1    
   106   54  120 1    
   107   55   56 1    
   108   55   57 1    
   109   55  121 1    
   110   56  122 1    
   111   56  123 1    
   112   56  124 1    
   113   57   58 2    
   114   57   59 am   BACKBONE|DICT|INTERRES
   115   59   60 1    
   116   59  125 1    
   117   60   61 1    
   118   60   62 1    
   119   60  126 1    
   120   61  127 1    
   121   61  128 1    
   122   61  129 1    
   123   62   63 2    
   124   62   64 am   BACKBONE|DICT|INTERRES
   125   64   65 1    
   126   64  130 1    
   127   65   66 1    
   128   65   69 1    
   129   65  131 1    
   130   66   67 am   BACKBONE|DICT|INTERRES
   131   66   68 2    
   132   67  132 1    
   133   67  133 1    
   134   69   70 1    
   135   69  134 1    
   136   69  135 1    
   137   70   71 1    
   138   71  136 1    
   139   71  137 1    
@<TRIPOS>SUBSTRUCTURE
     1 UNK         1 GROUP             0       ****    0 ROOT    
