@<TRIPOS>MOLECULE
3R136
137   139    1
SMALL
USER_CHARGES


@<TRIPOS>ATOM
      1 CA         26.6749   23.6036    5.8467 C.3       0 UNK        -0.1979 
      2 C          27.3773   23.5454    4.4988 C.2       0 UNK         0.4864 
      3 O          27.3380   24.5217    3.7536 O.2       0 UNK        -0.5359 
      4 N          28.0173   22.4105    4.1870 N.am      1 UNK        -0.4318 
      5 CA         28.7661   22.1190    2.9588 C.3       1 UNK         0.0824 
      6 C6         29.9874   23.0523    2.7353 C.3       12 UNK        -0.0944 
      7 S7         31.2511   22.2761    1.6770 S.3       12 UNK        -0.2672 
      8 C8         32.5882   23.5170    1.7482 C.3       12 UNK         0.0333 
      9 C9         32.4217   24.7441    0.8474 C.ar      12 UNK        -0.0807 
     10 C10        33.2532   25.8446    1.0797 C.ar      12 UNK        -0.0894 
     11 C11        33.1921   26.9767    0.2630 C.ar      12 UNK        -0.0804 
     12 C12        32.2916   27.0068   -0.8036 C.ar      12 UNK        -0.0824 
     13 C13        31.4322   25.9299   -1.0380 C.ar      12 UNK        -0.0762 
     14 C14        31.5069   24.7993   -0.2158 C.ar      12 UNK        -0.0782 
     15 C15        30.4378   25.9773   -2.1910 C.3       12 UNK         0.0230 
     16 S16        28.8173   26.6369   -1.6803 S.3       12 UNK        -0.2608 
     17 C17        29.1093   28.4389   -1.7224 C.3       12 UNK        -0.0989 
     18 CA         28.1317   29.2717   -0.8574 C.3       5 UNK         0.0716 
     19 N          26.7273   29.0553   -1.2171 N.am      5 UNK        -0.4135 
     20 C          25.7342   29.9100   -0.9419 C.2       4 UNK         0.5031 
     21 O          25.9026   30.9888   -0.3717 O.2       4 UNK        -0.5229 
     22 CA         24.3083   29.5155   -1.3668 C.3       4 UNK         0.0329 
     23 CB         24.0828   29.7616   -2.8722 C.3       4 UNK        -0.2001 
     24 N          23.9028   28.1614   -0.9648 N.am      4 UNK        -0.4303 
     25 C          24.3662   26.9830   -1.4009 C.2       3 UNK         0.5044 
     26 O          25.2381   26.8551   -2.2634 O.2       3 UNK        -0.5152 
     27 CA         23.7144   25.7396   -0.7727 C.3       3 UNK         0.0319 
     28 CB         22.4767   25.3195   -1.5825 C.3       3 UNK        -0.2001 
     29 N          24.6295   24.6008   -0.6782 N.am      3 UNK        -0.4354 
     30 C          25.7478   24.5679    0.0579 C.2       2 UNK         0.4964 
     31 O          26.1555   25.5113    0.7409 O.2       2 UNK        -0.5047 
     32 CA         26.5268   23.2479    0.0222 C.3       2 UNK         0.0288 
     33 CB         27.3887   23.1292   -1.2492 C.3       2 UNK        -0.2113 
     34 N          27.3695   23.1437    1.2085 N.am      2 UNK        -0.4145 
     35 C          27.8519   22.0066    1.7206 C.2       1 UNK         0.5006 
     36 O          27.5998   20.8909    1.2600 O.2       1 UNK        -0.5103 
     37 C          28.3909   29.1131    0.6563 C.2       5 UNK         0.5055 
     38 O          29.1866   29.8798    1.2019 O.2       5 UNK        -0.5220 
     39 N          27.6910   28.1643    1.3002 N.am      6 UNK        -0.4450 
     40 CA         27.8024   27.7857    2.7137 C.3       6 UNK         0.0367 
     41 CB         27.4271   28.9643    3.6414 C.3       6 UNK        -0.1929 
     42 C          29.1670   27.1457    3.0484 C.2       6 UNK         0.5070 
     43 O          29.8877   26.7172    2.1476 O.2       6 UNK        -0.5237 
     44 N          29.4742   27.0318    4.3465 N.am      7 UNK        -0.4739 
     45 CA         30.7083   26.4306    4.8536 C.3       7 UNK         0.0276 
     46 CB         30.5056   26.0680    6.3343 C.3       7 UNK        -0.1927 
     47 C          31.9184   27.3630    4.6869 C.2       7 UNK         0.5013 
     48 O          31.7535   28.5814    4.5975 O.2       7 UNK        -0.5193 
     49 N          33.1256   26.7800    4.7422 N.am      8 UNK        -0.4253 
     50 CA         34.4157   27.4741    4.6157 C.3       8 UNK         0.0242 
     51 CB         35.5572   26.4496    4.7079 C.3       8 UNK        -0.2000 
     52 C          34.6400   28.6225    5.6196 C.2       8 UNK         0.4948 
     53 O          35.3705   29.5625    5.3055 O.2       8 UNK        -0.5275 
     54 N          33.9740   28.5560    6.7812 N.am      9 UNK        -0.4246 
     55 CA         33.9183   29.6243    7.7813 C.3       9 UNK         0.0261 
     56 CB         33.2183   29.0973    9.0445 C.3       9 UNK        -0.1959 
     57 C          33.2285   30.9092    7.2802 C.2       9 UNK         0.5033 
     58 O          33.5715   31.9902    7.7611 O.2       9 UNK        -0.5390 
     59 N          32.2872   30.7839    6.3316 N.am      10 UNK        -0.4215 
     60 CA         31.6516   31.9158    5.6542 C.3       10 UNK         0.0240 
     61 CB         30.2511   31.5118    5.1636 C.3       10 UNK        -0.1982 
     62 C          32.5102   32.4204    4.4835 C.2       10 UNK         0.4970 
     63 O          32.5289   33.6264    4.2339 O.2       10 UNK        -0.4916 
     64 N          33.2016   31.5013    3.7944 N.am      11 UNK        -0.4279 
     65 CA         34.1363   31.8029    2.6987 C.3       11 UNK         0.1003 
     66 C          35.3829   32.6012    3.1679 C.2       11 UNK         0.5709 
     67 N          36.0015   32.2238    4.2804 N.am      11 UNK        -0.7358 
     68 O          35.7871   33.5643    2.5207 O.2       11 UNK        -0.4999 
     69 C69        34.5798   30.5328    1.9267 C.3       12 UNK        -0.0954 
     70 S70        33.1890   29.5074    1.3537 S.3       12 UNK        -0.2268 
     71 C71        34.0993   28.1665    0.5309 C.3       12 UNK         0.0203 
     72 H72        27.0681   24.4308    6.4371 H         1 UNK         0.0888 
     73 H73        25.6065   23.7637    5.7049 H         1 UNK         0.0888 
     74 H74        26.8087   22.6852    6.4181 H         1 UNK         0.0888 
     75 H75        27.9770   21.6421    4.8425 H         1 UNK         0.3017 
     76 H76        29.1609   21.1156    3.1294 H         1 UNK         0.0873 
     77 H77        29.6980   24.0179    2.3173 H         1 UNK         0.0745 
     78 H78        30.4581   23.2664    3.6954 H         1 UNK         0.0745 
     79 H79        32.7140   23.8354    2.7841 H         1 UNK         0.0705 
     80 H80        33.5177   23.0206    1.4669 H         1 UNK         0.0705 
     81 H81        33.9583   25.8180    1.8987 H         1 UNK         0.1334 
     82 H82        32.2553   27.8788   -1.4410 H         1 UNK         0.1417 
     83 H83        30.8480   23.9666   -0.4153 H         1 UNK         0.1562 
     84 H84        30.2922   24.9719   -2.5888 H         1 UNK         0.0748 
     85 H85        30.8337   26.5721   -3.0157 H         1 UNK         0.0748 
     86 H86        29.0385   28.7618   -2.7622 H         1 UNK         0.0940 
     87 H87        30.1331   28.6541   -1.4187 H         1 UNK         0.0940 
     88 H88        28.3503   30.3180   -1.0843 H         1 UNK         0.0703 
     89 H89        26.4949   28.1787   -1.6782 H         1 UNK         0.3081 
     90 H90        23.6330   30.1852   -0.8314 H         1 UNK         0.0719 
     91 H91        24.2839   30.8026   -3.1286 H         1 UNK         0.0809 
     92 H92        23.0521   29.5515   -3.1580 H         1 UNK         0.0809 
     93 H93        24.7345   29.1464   -3.4932 H         1 UNK         0.0809 
     94 H94        23.1956   28.1373   -0.2425 H         1 UNK         0.2990 
     95 H95        23.3985   25.9892    0.2426 H         1 UNK         0.0690 
     96 H96        22.7403   25.0372   -2.6028 H         1 UNK         0.0788 
     97 H97        21.7544   26.1346   -1.6475 H         1 UNK         0.0788 
     98 H98        21.9662   24.4742   -1.1204 H         1 UNK         0.0788 
     99 H99        24.3968   23.7947   -1.2397 H         1 UNK         0.2993 
    100 H100       25.7982   22.4343    0.0398 H         1 UNK         0.0949 
    101 H101       26.8039   23.3239   -2.1490 H         1 UNK         0.0767 
    102 H102       28.2162   23.8373   -1.2353 H         1 UNK         0.0767 
    103 H103       27.8121   22.1297   -1.3485 H         1 UNK         0.0767 
    104 H104       27.5117   24.0126    1.7188 H         1 UNK         0.3013 
    105 H105       27.1313   27.5291    0.7432 H         1 UNK         0.3121 
    106 H106       27.0574   27.0036    2.8618 H         1 UNK         0.0774 
    107 H107       27.2671   28.6298    4.6664 H         1 UNK         0.0815 
    108 H108       28.2059   29.7264    3.6629 H         1 UNK         0.0815 
    109 H109       26.5029   29.4425    3.3170 H         1 UNK         0.0815 
    110 H110       28.8439   27.4222    5.0298 H         1 UNK         0.2987 
    111 H111       30.9026   25.5179    4.2877 H         1 UNK         0.0949 
    112 H112       30.3159   26.9522    6.9445 H         1 UNK         0.0806 
    113 H113       29.6646   25.3859    6.4619 H         1 UNK         0.0806 
    114 H114       31.3848   25.5703    6.7452 H         1 UNK         0.0806 
    115 H115       33.1705   25.7783    4.8608 H         1 UNK         0.3010 
    116 H116       34.4382   27.9165    3.6197 H         1 UNK         0.0829 
    117 H117       35.4780   25.6906    3.9296 H         1 UNK         0.0813 
    118 H118       36.5268   26.9347    4.5846 H         1 UNK         0.0813 
    119 H119       35.5678   25.9426    5.6736 H         1 UNK         0.0813 
    120 H120       33.4070   27.7398    6.9560 H         1 UNK         0.3038 
    121 H121       34.9458   29.8868    8.0423 H         1 UNK         0.0769 
    122 H122       32.1900   28.7953    8.8412 H         1 UNK         0.0811 
    123 H123       33.1850   29.8640    9.8200 H         1 UNK         0.0811 
    124 H124       33.7453   28.2396    9.4630 H         1 UNK         0.0811 
    125 H125       32.0859   29.8652    5.9428 H         1 UNK         0.3204 
    126 H126       31.5330   32.7367    6.3648 H         1 UNK         0.0748 
    127 H127       29.6380   31.1268    5.9784 H         1 UNK         0.0771 
    128 H128       29.7274   32.3691    4.7388 H         1 UNK         0.0771 
    129 H129       30.2982   30.7472    4.3874 H         1 UNK         0.0771 
    130 H130       33.0978   30.5261    4.0358 H         1 UNK         0.2980 
    131 H131       33.5978   32.4387    1.9932 H         1 UNK         0.0545 
    132 H132       35.7101   31.3779    4.7629 H         1 UNK         0.3459 
    133 H133       36.8091   32.7344    4.5984 H         1 UNK         0.3459 
    134 H134       35.1734   30.8122    1.0542 H         1 UNK         0.0616 
    135 H135       35.2263   29.9138    2.5507 H         1 UNK         0.0616 
    136 H136       34.9452   27.8640    1.1500 H         1 UNK         0.0634 
    137 H137       34.5176   28.5363   -0.4064 H         1 UNK         0.0634 
@<TRIPOS>BOND
     1    1    2 1    
     2    1   72 1    
     3    1   73 1    
     4    1   74 1    
     5    2    3 2    
     6    2    4 am   BACKBONE|DICT|INTERRES
     7    4    5 1    
     8    4   75 1    
     9    5    6 1    
    10    5   35 1    
    11    5   76 1    
    12    6    7 1    
    13    6   77 1    
    14    6   78 1    
    15    7    8 1    
    16    8    9 1    
    17    8   79 1    
    18    8   80 1    
    19    9   10 ar   
    20    9   14 ar   
    21   10   11 ar   
    22   10   81 1    
    23   11   12 ar   
    24   11   71 1    
    25   12   13 ar   
    26   12   82 1    
    27   13   14 ar   
    28   13   15 1    
    29   14   83 1    
    30   15   16 1    
    31   15   84 1    
    32   15   85 1    
    33   16   17 1    
    34   17   18 1    
    35   17   86 1    
    36   17   87 1    
    37   18   19 1    
    38   18   37 1    
    39   18   88 1    
    40   19   20 am   BACKBONE|DICT|INTERRES
    41   19   89 1    
    42   20   21 2    
    43   20   22 1    
    44   22   23 1    
    45   22   24 1    
    46   22   90 1    
    47   23   91 1    
    48   23   92 1    
    49   23   93 1    
    50   24   25 am   BACKBONE|DICT|INTERRES
    51   24   94 1    
    52   25   26 2    
    53   25   27 1    
    54   27   28 1    
    55   27   29 1    
    56   27   95 1    
    57   28   96 1    
    58   28   97 1    
    59   28   98 1    
    60   29   30 am   BACKBONE|DICT|INTERRES
    61   29   99 1    
    62   30   31 2    
    63   30   32 1    
    64   32   33 1    
    65   32   34 1    
    66   32  100 1    
    67   33  101 1    
    68   33  102 1    
    69   33  103 1    
    70   34   35 am   BACKBONE|DICT|INTERRES
    71   34  104 1    
    72   35   36 2    
    73   37   38 2    
    74   37   39 am   BACKBONE|DICT|INTERRES
    75   39   40 1    
    76   39  105 1    
    77   40   41 1    
    78   40   42 1    
    79   40  106 1    
    80   41  107 1    
    81   41  108 1    
    82   41  109 1    
    83   42   43 2    
    84   42   44 am   BACKBONE|DICT|INTERRES
    85   44   45 1    
    86   44  110 1    
    87   45   46 1    
    88   45   47 1    
    89   45  111 1    
    90   46  112 1    
    91   46  113 1    
    92   46  114 1    
    93   47   48 2    
    94   47   49 am   BACKBONE|DICT|INTERRES
    95   49   50 1    
    96   49  115 1    
    97   50   51 1    
    98   50   52 1    
    99   50  116 1    
   100   51  117 1    
   101   51  118 1    
   102   51  119 1    
   103   52   53 2    
   104   52   54 am   BACKBONE|DICT|INTERRES
   105   54   55 1    
   106   54  120 1    
   107   55   56 1    
   108   55   57 1    
   109   55  121 1    
   110   56  122 1    
   111   56  123 1    
   112   56  124 1    
   113   57   58 2    
   114   57   59 am   BACKBONE|DICT|INTERRES
   115   59   60 1    
   116   59  125 1    
   117   60   61 1    
   118   60   62 1    
   119   60  126 1    
   120   61  127 1    
   121   61  128 1    
   122   61  129 1    
   123   62   63 2    
   124   62   64 am   BACKBONE|DICT|INTERRES
   125   64   65 1    
   126   64  130 1    
   127   65   66 1    
   128   65   69 1    
   129   65  131 1    
   130   66   67 am   BACKBONE|DICT|INTERRES
   131   66   68 2    
   132   67  132 1    
   133   67  133 1    
   134   69   70 1    
   135   69  134 1    
   136   69  135 1    
   137   70   71 1    
   138   71  136 1    
   139   71  137 1    
@<TRIPOS>SUBSTRUCTURE
     1 UNK         1 GROUP             0       ****    0 ROOT    
