@<TRIPOS>MOLECULE
3R136
137   139    1
SMALL
USER_CHARGES


@<TRIPOS>ATOM
      1 CA         32.6152   28.9036   -2.7565 C.3       0 UNK        -0.1979 
      2 C          31.5284   28.1212   -2.0330 C.2       0 UNK         0.4864 
      3 O          30.3472   28.4268   -2.1958 O.2       0 UNK        -0.5359 
      4 N          31.9274   27.1132   -1.2438 N.am      1 UNK        -0.4318 
      5 CA         31.0474   26.2304   -0.4699 C.3       1 UNK         0.0824 
      6 C6         31.8880   25.3157    0.4611 C.3       12 UNK        -0.0944 
      7 S7         30.9163   24.1923    1.5312 S.3       12 UNK        -0.2672 
      8 C8         31.4820   24.6183    3.2068 C.3       12 UNK         0.0333 
      9 C9         30.5300   25.5790    3.9018 C.ar      12 UNK        -0.0807 
     10 C10        30.7771   26.9544    3.8868 C.ar      12 UNK        -0.0894 
     11 C11        29.9520   27.8305    4.5989 C.ar      12 UNK        -0.0804 
     12 C12        28.8603   27.3219    5.3072 C.ar      12 UNK        -0.0824 
     13 C13        28.5801   25.9525    5.3018 C.ar      12 UNK        -0.0762 
     14 C14        29.4224   25.0846    4.6001 C.ar      12 UNK        -0.0782 
     15 C15        27.3843   25.4128    6.0784 C.3       12 UNK         0.0230 
     16 S16        25.9335   25.1018    5.0159 S.3       12 UNK        -0.2608 
     17 C17        25.5854   26.7651    4.3495 C.3       12 UNK        -0.0989 
     18 CA         25.9964   26.8516    2.8532 C.3       5 UNK         0.0716 
     19 N          25.0996   26.1147    1.9533 N.am      5 UNK        -0.4135 
     20 C          23.8070   26.3840    1.7045 C.2       4 UNK         0.5031 
     21 O          23.1788   27.2844    2.2629 O.2       4 UNK        -0.5229 
     22 CA         23.0782   25.5417    0.6348 C.3       4 UNK         0.0329 
     23 CB         22.6663   26.4269   -0.5548 C.3       4 UNK        -0.2001 
     24 N          23.8647   24.4176    0.1241 N.am      4 UNK        -0.4303 
     25 C          24.0865   23.2650    0.7704 C.2       3 UNK         0.5044 
     26 O          23.5582   22.9685    1.8420 O.2       3 UNK        -0.5152 
     27 CA         25.0948   22.2899    0.1270 C.3       3 UNK         0.0319 
     28 CB         24.3538   21.1673   -0.6174 C.3       3 UNK        -0.2001 
     29 N          26.0622   22.9180   -0.7872 N.am      3 UNK        -0.4354 
     30 C          26.9253   23.8868   -0.4507 C.2       2 UNK         0.4964 
     31 O          26.9795   24.3961    0.6723 O.2       2 UNK        -0.5047 
     32 CA         27.8303   24.4244   -1.5638 C.3       2 UNK         0.0288 
     33 CB         27.0387   25.3072   -2.5471 C.3       2 UNK        -0.2113 
     34 N          28.8764   25.2162   -0.9311 N.am      2 UNK        -0.4145 
     35 C          30.1098   25.4233   -1.3973 C.2       1 UNK         0.5006 
     36 O          30.5228   24.9888   -2.4770 O.2       1 UNK        -0.5103 
     37 C          26.2417   28.2865    2.3412 C.2       5 UNK         0.5055 
     38 O          26.1165   29.2567    3.0921 O.2       5 UNK        -0.5220 
     39 N          26.5928   28.3831    1.0504 N.am      6 UNK        -0.4450 
     40 CA         27.0648   29.6048    0.3973 C.3       6 UNK         0.0367 
     41 CB         27.0874   29.3768   -1.1225 C.3       6 UNK        -0.1929 
     42 C          28.4614   30.0013    0.9112 C.2       6 UNK         0.5070 
     43 O          29.2394   29.1202    1.2818 O.2       6 UNK        -0.5237 
     44 N          28.7369   31.3142    0.9258 N.am      7 UNK        -0.4739 
     45 CA         29.9600   31.9361    1.4506 C.3       7 UNK         0.0276 
     46 CB         29.8764   33.4585    1.2521 C.3       7 UNK        -0.1927 
     47 C          31.2503   31.3822    0.8196 C.2       7 UNK         0.5013 
     48 O          31.3314   31.2798   -0.4060 O.2       7 UNK        -0.5193 
     49 N          32.2329   31.0626    1.6677 N.am      8 UNK        -0.4253 
     50 CA         33.5023   30.4424    1.2989 C.3       8 UNK         0.0242 
     51 CB         33.3728   28.9196    1.4813 C.3       8 UNK        -0.2000 
     52 C          34.6240   31.0040    2.1822 C.2       8 UNK         0.4948 
     53 O          34.3531   31.7508    3.1262 O.2       8 UNK        -0.5275 
     54 N          35.8675   30.6126    1.8710 N.am      9 UNK        -0.4246 
     55 CA         37.0747   30.9879    2.6170 C.3       9 UNK         0.0261 
     56 CB         38.3168   30.6064    1.7945 C.3       9 UNK        -0.1959 
     57 C          37.1559   30.3729    4.0282 C.2       9 UNK         0.5033 
     58 O          37.8218   30.9459    4.8923 O.2       9 UNK        -0.5390 
     59 N          36.4849   29.2350    4.2402 N.am      10 UNK        -0.4215 
     60 CA         36.3308   28.5667    5.5272 C.3       10 UNK         0.0240 
     61 CB         37.4192   27.4933    5.7003 C.3       10 UNK        -0.1982 
     62 C          34.9287   27.9528    5.5624 C.2       10 UNK         0.4970 
     63 O          34.5155   27.3482    4.5699 O.2       10 UNK        -0.4916 
     64 N          34.2358   28.1286    6.6913 N.am      11 UNK        -0.4279 
     65 CA         32.8412   27.7070    6.9137 C.3       11 UNK         0.1003 
     66 C          32.6683   26.8368    8.1924 C.2       11 UNK         0.5709 
     67 N          33.7377   26.3797    8.8351 N.am      11 UNK        -0.7358 
     68 O          31.5472   26.5525    8.6067 O.2       11 UNK        -0.4999 
     69 C69        31.8730   28.9252    6.8923 C.3       12 UNK        -0.0954 
     70 S70        31.8608   29.7722    5.2738 S.3       12 UNK        -0.2268 
     71 C71        30.2251   29.3294    4.6066 C.3       12 UNK         0.0203 
     72 H72        33.6140   28.5561   -2.4934 H         1 UNK         0.0888 
     73 H73        32.5472   29.9605   -2.5000 H         1 UNK         0.0888 
     74 H74        32.4931   28.8057   -3.8348 H         1 UNK         0.0888 
     75 H75        32.9108   26.8912   -1.1983 H         1 UNK         0.3017 
     76 H76        30.4291   26.8768    0.1579 H         1 UNK         0.0873 
     77 H77        32.5289   25.9364    1.0884 H         1 UNK         0.0745 
     78 H78        32.5645   24.6980   -0.1326 H         1 UNK         0.0745 
     79 H79        31.5511   23.6978    3.7885 H         1 UNK         0.0705 
     80 H80        32.4937   25.0264    3.1832 H         1 UNK         0.0705 
     81 H81        31.6284   27.3422    3.3467 H         1 UNK         0.1334 
     82 H82        28.2240   27.9967    5.8627 H         1 UNK         0.1417 
     83 H83        29.2207   24.0220    4.6055 H         1 UNK         0.1562 
     84 H84        27.1030   26.1026    6.8758 H         1 UNK         0.0748 
     85 H85        27.6629   24.4809    6.5725 H         1 UNK         0.0748 
     86 H86        26.1113   27.5027    4.9550 H         1 UNK         0.0940 
     87 H87        24.5268   26.9890    4.4843 H         1 UNK         0.0940 
     88 H88        26.9707   26.3676    2.7586 H         1 UNK         0.0703 
     89 H89        25.5461   25.3504    1.4542 H         1 UNK         0.3081 
     90 H90        22.1714   25.1468    1.0978 H         1 UNK         0.0719 
     91 H91        23.5330   26.8618   -1.0545 H         1 UNK         0.0809 
     92 H92        22.0995   25.8608   -1.2943 H         1 UNK         0.0809 
     93 H93        22.0316   27.2520   -0.2285 H         1 UNK         0.0809 
     94 H94        24.3300   24.5570   -0.7606 H         1 UNK         0.2990 
     95 H95        25.6653   21.8400    0.9423 H         1 UNK         0.0690 
     96 H96        25.0461   20.4108   -0.9875 H         1 UNK         0.0788 
     97 H97        23.7878   21.5514   -1.4670 H         1 UNK         0.0788 
     98 H98        23.6476   20.6607    0.0422 H         1 UNK         0.0788 
     99 H99        26.0715   22.5699   -1.7358 H         1 UNK         0.2993 
    100 H100       28.2775   23.5780   -2.0897 H         1 UNK         0.0949 
    101 H101       26.5572   26.1449   -2.0408 H         1 UNK         0.0767 
    102 H102       27.6893   25.7178   -3.3198 H         1 UNK         0.0767 
    103 H103       26.2596   24.7367   -3.0539 H         1 UNK         0.0767 
    104 H104       28.6523   25.4974    0.0160 H         1 UNK         0.3013 
    105 H105       26.6899   27.5304    0.5218 H         1 UNK         0.3121 
    106 H106       26.3621   30.4094    0.6246 H         1 UNK         0.0774 
    107 H107       27.7539   28.5576   -1.3959 H         1 UNK         0.0815 
    108 H108       26.0937   29.1446   -1.5059 H         1 UNK         0.0815 
    109 H109       27.4385   30.2664   -1.6469 H         1 UNK         0.0815 
    110 H110       28.0411   31.9499    0.5639 H         1 UNK         0.2987 
    111 H111       29.9837   31.7397    2.5236 H         1 UNK         0.0949 
    112 H112       29.0117   33.8815    1.7637 H         1 UNK         0.0806 
    113 H113       30.7618   33.9538    1.6533 H         1 UNK         0.0806 
    114 H114       29.8067   33.7230    0.1960 H         1 UNK         0.0806 
    115 H115       32.1434   31.2722    2.6538 H         1 UNK         0.3010 
    116 H116       33.7398   30.6720    0.2578 H         1 UNK         0.0829 
    117 H117       34.2132   28.3880    1.0345 H         1 UNK         0.0813 
    118 H118       32.4616   28.5428    1.0187 H         1 UNK         0.0813 
    119 H119       33.3359   28.6496    2.5366 H         1 UNK         0.0813 
    120 H120       36.0018   30.0062    1.0742 H         1 UNK         0.3038 
    121 H121       37.0675   32.0734    2.7382 H         1 UNK         0.0769 
    122 H122       38.3205   31.1045    0.8248 H         1 UNK         0.0811 
    123 H123       38.3735   29.5308    1.6220 H         1 UNK         0.0811 
    124 H124       39.2317   30.9014    2.3106 H         1 UNK         0.0811 
    125 H125       35.9279   28.8421    3.4927 H         1 UNK         0.3204 
    126 H126       36.4166   29.2992    6.3330 H         1 UNK         0.0748 
    127 H127       37.3129   26.9790    6.6562 H         1 UNK         0.0771 
    128 H128       37.3695   26.7386    4.9142 H         1 UNK         0.0771 
    129 H129       38.4161   27.9342    5.6778 H         1 UNK         0.0771 
    130 H130       34.6606   28.6307    7.4575 H         1 UNK         0.2980 
    131 H131       32.5415   27.0366    6.1073 H         1 UNK         0.0545 
    132 H132       34.6662   26.5629    8.4913 H         1 UNK         0.3459 
    133 H133       33.6085   25.8130    9.6586 H         1 UNK         0.3459 
    134 H134       32.1614   29.6503    7.6547 H         1 UNK         0.0616 
    135 H135       30.8537   28.6234    7.1377 H         1 UNK         0.0616 
    136 H136       29.4605   29.8636    5.1724 H         1 UNK         0.0634 
    137 H137       30.1647   29.6977    3.5858 H         1 UNK         0.0634 
@<TRIPOS>BOND
     1    1    2 1    
     2    1   72 1    
     3    1   73 1    
     4    1   74 1    
     5    2    3 2    
     6    2    4 am   BACKBONE|DICT|INTERRES
     7    4    5 1    
     8    4   75 1    
     9    5    6 1    
    10    5   35 1    
    11    5   76 1    
    12    6    7 1    
    13    6   77 1    
    14    6   78 1    
    15    7    8 1    
    16    8    9 1    
    17    8   79 1    
    18    8   80 1    
    19    9   10 ar   
    20    9   14 ar   
    21   10   11 ar   
    22   10   81 1    
    23   11   12 ar   
    24   11   71 1    
    25   12   13 ar   
    26   12   82 1    
    27   13   14 ar   
    28   13   15 1    
    29   14   83 1    
    30   15   16 1    
    31   15   84 1    
    32   15   85 1    
    33   16   17 1    
    34   17   18 1    
    35   17   86 1    
    36   17   87 1    
    37   18   19 1    
    38   18   37 1    
    39   18   88 1    
    40   19   20 am   BACKBONE|DICT|INTERRES
    41   19   89 1    
    42   20   21 2    
    43   20   22 1    
    44   22   23 1    
    45   22   24 1    
    46   22   90 1    
    47   23   91 1    
    48   23   92 1    
    49   23   93 1    
    50   24   25 am   BACKBONE|DICT|INTERRES
    51   24   94 1    
    52   25   26 2    
    53   25   27 1    
    54   27   28 1    
    55   27   29 1    
    56   27   95 1    
    57   28   96 1    
    58   28   97 1    
    59   28   98 1    
    60   29   30 am   BACKBONE|DICT|INTERRES
    61   29   99 1    
    62   30   31 2    
    63   30   32 1    
    64   32   33 1    
    65   32   34 1    
    66   32  100 1    
    67   33  101 1    
    68   33  102 1    
    69   33  103 1    
    70   34   35 am   BACKBONE|DICT|INTERRES
    71   34  104 1    
    72   35   36 2    
    73   37   38 2    
    74   37   39 am   BACKBONE|DICT|INTERRES
    75   39   40 1    
    76   39  105 1    
    77   40   41 1    
    78   40   42 1    
    79   40  106 1    
    80   41  107 1    
    81   41  108 1    
    82   41  109 1    
    83   42   43 2    
    84   42   44 am   BACKBONE|DICT|INTERRES
    85   44   45 1    
    86   44  110 1    
    87   45   46 1    
    88   45   47 1    
    89   45  111 1    
    90   46  112 1    
    91   46  113 1    
    92   46  114 1    
    93   47   48 2    
    94   47   49 am   BACKBONE|DICT|INTERRES
    95   49   50 1    
    96   49  115 1    
    97   50   51 1    
    98   50   52 1    
    99   50  116 1    
   100   51  117 1    
   101   51  118 1    
   102   51  119 1    
   103   52   53 2    
   104   52   54 am   BACKBONE|DICT|INTERRES
   105   54   55 1    
   106   54  120 1    
   107   55   56 1    
   108   55   57 1    
   109   55  121 1    
   110   56  122 1    
   111   56  123 1    
   112   56  124 1    
   113   57   58 2    
   114   57   59 am   BACKBONE|DICT|INTERRES
   115   59   60 1    
   116   59  125 1    
   117   60   61 1    
   118   60   62 1    
   119   60  126 1    
   120   61  127 1    
   121   61  128 1    
   122   61  129 1    
   123   62   63 2    
   124   62   64 am   BACKBONE|DICT|INTERRES
   125   64   65 1    
   126   64  130 1    
   127   65   66 1    
   128   65   69 1    
   129   65  131 1    
   130   66   67 am   BACKBONE|DICT|INTERRES
   131   66   68 2    
   132   67  132 1    
   133   67  133 1    
   134   69   70 1    
   135   69  134 1    
   136   69  135 1    
   137   70   71 1    
   138   71  136 1    
   139   71  137 1    
@<TRIPOS>SUBSTRUCTURE
     1 UNK         1 GROUP             0       ****    0 ROOT    
