@<TRIPOS>MOLECULE
3R136
137   139    1
SMALL
USER_CHARGES


@<TRIPOS>ATOM
      1 CA         30.4375   17.7966   -2.0028 C.3       0 UNK        -0.1979 
      2 C          29.9847   19.2377   -2.1875 C.2       0 UNK         0.4864 
      3 O          29.1345   19.5069   -3.0379 O.2       0 UNK        -0.5359 
      4 N          30.5516   20.1653   -1.4049 N.am      1 UNK        -0.4318 
      5 CA         30.1874   21.5847   -1.3946 C.3       1 UNK         0.0824 
      6 C6         31.2972   22.4324   -0.7237 C.3       12 UNK        -0.0944 
      7 S7         31.1369   24.2152   -1.0823 S.3       12 UNK        -0.2672 
      8 C8         32.0387   24.9523    0.3256 C.3       12 UNK         0.0333 
      9 C9         31.3821   24.8226    1.7039 C.ar      12 UNK        -0.0807 
     10 C10        32.1111   25.2404    2.8223 C.ar      12 UNK        -0.0894 
     11 C11        31.5677   25.1561    4.1075 C.ar      12 UNK        -0.0804 
     12 C12        30.2895   24.6224    4.2816 C.ar      12 UNK        -0.0824 
     13 C13        29.5428   24.2091    3.1763 C.ar      12 UNK        -0.0762 
     14 C14        30.0876   24.3197    1.8941 C.ar      12 UNK        -0.0782 
     15 C15        28.1367   23.6626    3.3614 C.3       12 UNK         0.0230 
     16 S16        26.8851   24.8426    2.7726 S.3       12 UNK        -0.2608 
     17 C17        27.0670   26.2276    3.9541 C.3       12 UNK        -0.0989 
     18 CA         28.0585   27.3378    3.4981 C.3       5 UNK         0.0716 
     19 N          27.8992   27.6475    2.0769 N.am      5 UNK        -0.4135 
     20 C          28.4498   28.6209    1.3405 C.2       4 UNK         0.5031 
     21 O          29.1326   29.5474    1.7846 O.2       4 UNK        -0.5229 
     22 CA         28.2412   28.5251   -0.1823 C.3       4 UNK         0.0329 
     23 CB         29.5546   28.0919   -0.8560 C.3       4 UNK        -0.2001 
     24 N          27.1852   27.5915   -0.5871 N.am      4 UNK        -0.4303 
     25 C          25.8708   27.7583   -0.4004 C.2       3 UNK         0.5044 
     26 O          25.3828   28.7640    0.1147 O.2       3 UNK        -0.5152 
     27 CA         24.9384   26.6064   -0.8261 C.3       3 UNK         0.0319 
     28 CB         24.4825   26.7814   -2.2879 C.3       3 UNK        -0.2001 
     29 N          25.4539   25.2459   -0.5834 N.am      3 UNK        -0.4354 
     30 C          26.4888   24.6210   -1.1637 C.2       2 UNK         0.4964 
     31 O          27.2348   25.1466   -1.9947 O.2       2 UNK        -0.5047 
     32 CA         26.7315   23.1653   -0.7434 C.3       2 UNK         0.0288 
     33 CB         25.6479   22.2301   -1.3130 C.3       2 UNK        -0.2113 
     34 N          28.0442   22.7575   -1.2329 N.am      2 UNK        -0.4145 
     35 C          28.8106   21.7882   -0.7238 C.2       1 UNK         0.5006 
     36 O          28.4874   21.0940    0.2443 O.2       1 UNK        -0.5103 
     37 C          27.9550   28.5742    4.4119 C.2       5 UNK         0.5055 
     38 O          26.8450   29.0402    4.6773 O.2       5 UNK        -0.5220 
     39 N          29.1145   29.0834    4.8557 N.am      6 UNK        -0.4450 
     40 CA         29.3016   30.2600    5.7168 C.3       6 UNK         0.0367 
     41 CB         28.7612   29.9809    7.1352 C.3       6 UNK        -0.1929 
     42 C          28.7534   31.5789    5.1250 C.2       6 UNK         0.5070 
     43 O          28.5148   32.5252    5.8780 O.2       6 UNK        -0.5237 
     44 N          28.5540   31.6224    3.8017 N.am      7 UNK        -0.4739 
     45 CA         27.9962   32.7542    3.0641 C.3       7 UNK         0.0276 
     46 CB         26.6647   32.3361    2.4143 C.3       7 UNK        -0.1927 
     47 C          29.0020   33.2424    2.0179 C.2       7 UNK         0.5013 
     48 O          29.4011   34.4068    2.0610 O.2       7 UNK        -0.5193 
     49 N          29.4033   32.3410    1.1129 N.am      8 UNK        -0.4253 
     50 CA         30.4451   32.5772    0.1118 C.3       8 UNK         0.0242 
     51 CB         29.9908   32.0296   -1.2507 C.3       8 UNK        -0.2000 
     52 C          31.7718   31.9378    0.5455 C.2       8 UNK         0.4948 
     53 O          32.8295   32.5064    0.2712 O.2       8 UNK        -0.5275 
     54 N          31.6997   30.7881    1.2303 N.am      9 UNK        -0.4246 
     55 CA         32.8335   30.1513    1.8928 C.3       9 UNK         0.0261 
     56 CB         32.5536   28.6464    2.0229 C.3       9 UNK        -0.1959 
     57 C          33.0355   30.7832    3.2767 C.2       9 UNK         0.5033 
     58 O          32.0503   31.0894    3.9511 O.2       9 UNK        -0.5390 
     59 N          34.2999   30.9492    3.6844 N.am      10 UNK        -0.4215 
     60 CA         34.6662   31.4803    5.0015 C.3       10 UNK         0.0240 
     61 CB         36.1330   31.9417    4.9832 C.3       10 UNK        -0.1982 
     62 C          34.4304   30.4665    6.1340 C.2       10 UNK         0.4970 
     63 O          34.0105   30.8652    7.2206 O.2       10 UNK        -0.4916 
     64 N          34.7116   29.1858    5.8519 N.am      11 UNK        -0.4279 
     65 CA         34.5494   28.0323    6.7564 C.3       11 UNK         0.1003 
     66 C          35.4490   28.0598    8.0315 C.2       11 UNK         0.5709 
     67 N          36.5228   28.8404    8.0642 N.am      11 UNK        -0.7358 
     68 O          35.1971   27.3379    8.9939 O.2       11 UNK        -0.4999 
     69 C69        33.0584   27.7135    7.0713 C.3       12 UNK        -0.0954 
     70 S70        32.0641   27.4307    5.5694 S.3       12 UNK        -0.2268 
     71 C71        32.3534   25.6553    5.3075 C.3       12 UNK         0.0203 
     72 H72        30.8508   17.4106   -2.9343 H         1 UNK         0.0888 
     73 H73        31.2004   17.7045   -1.2299 H         1 UNK         0.0888 
     74 H74        29.5912   17.1713   -1.7198 H         1 UNK         0.0888 
     75 H75        31.2188   19.8787   -0.7030 H         1 UNK         0.3017 
     76 H76        30.1063   21.8997   -2.4379 H         1 UNK         0.0873 
     77 H77        31.3195   22.2605    0.3541 H         1 UNK         0.0745 
     78 H78        32.2759   22.1239   -1.0951 H         1 UNK         0.0745 
     79 H79        32.1775   26.0118    0.1105 H         1 UNK         0.0705 
     80 H80        33.0368   24.5130    0.3607 H         1 UNK         0.0705 
     81 H81        33.1050   25.6462    2.6921 H         1 UNK         0.1334 
     82 H82        29.8671   24.5545    5.2750 H         1 UNK         0.1417 
     83 H83        29.4854   24.0144    1.0523 H         1 UNK         0.1562 
     84 H84        27.9427   23.4147    4.4061 H         1 UNK         0.0748 
     85 H85        28.0366   22.7315    2.8011 H         1 UNK         0.0748 
     86 H86        27.3587   25.8359    4.9303 H         1 UNK         0.0940 
     87 H87        26.0653   26.6409    4.0888 H         1 UNK         0.0940 
     88 H88        29.0706   26.9462    3.5954 H         1 UNK         0.0703 
     89 H89        27.3558   26.9611    1.5756 H         1 UNK         0.3081 
     90 H90        27.9708   29.5208   -0.5387 H         1 UNK         0.0719 
     91 H91        29.8297   27.0738   -0.5773 H         1 UNK         0.0809 
     92 H92        29.4745   28.1302   -1.9424 H         1 UNK         0.0809 
     93 H93        30.3854   28.7377   -0.5699 H         1 UNK         0.0809 
     94 H94        27.4738   26.7451   -1.0724 H         1 UNK         0.2990 
     95 H95        24.0488   26.6907   -0.1996 H         1 UNK         0.0690 
     96 H96        23.7596   26.0166   -2.5720 H         1 UNK         0.0788 
     97 H97        25.3179   26.7296   -2.9868 H         1 UNK         0.0788 
     98 H98        24.0020   27.7502   -2.4316 H         1 UNK         0.0788 
     99 H99        24.9373   24.7259    0.1133 H         1 UNK         0.2993 
    100 H100       26.7247   23.1151    0.3470 H         1 UNK         0.0949 
    101 H101       25.6238   22.2616   -2.4032 H         1 UNK         0.0767 
    102 H102       25.8190   21.1958   -1.0135 H         1 UNK         0.0767 
    103 H103       24.6558   22.5074   -0.9549 H         1 UNK         0.0767 
    104 H104       28.4036   23.3492   -1.9735 H         1 UNK         0.3013 
    105 H105       29.9747   28.6442    4.5549 H         1 UNK         0.3121 
    106 H106       30.3795   30.3973    5.8072 H         1 UNK         0.0774 
    107 H107       29.0266   30.7858    7.8215 H         1 UNK         0.0815 
    108 H108       27.6745   29.8917    7.1436 H         1 UNK         0.0815 
    109 H109       29.1788   29.0606    7.5434 H         1 UNK         0.0815 
    110 H110       28.8110   30.8052    3.2568 H         1 UNK         0.2987 
    111 H111       27.7951   33.5909    3.7368 H         1 UNK         0.0949 
    112 H112       26.2453   33.1504    1.8220 H         1 UNK         0.0806 
    113 H113       26.7785   31.4744    1.7553 H         1 UNK         0.0806 
    114 H114       25.9266   32.0733    3.1724 H         1 UNK         0.0806 
    115 H115       29.0595   31.3909    1.1982 H         1 UNK         0.3010 
    116 H116       30.6194   33.6493   -0.0034 H         1 UNK         0.0829 
    117 H117       29.0658   32.5039   -1.5787 H         1 UNK         0.0813 
    118 H118       30.7431   32.2228   -2.0167 H         1 UNK         0.0813 
    119 H119       29.8243   30.9544   -1.2243 H         1 UNK         0.0813 
    120 H120       30.7881   30.4042    1.4586 H         1 UNK         0.3038 
    121 H121       33.7345   30.2899    1.2913 H         1 UNK         0.0769 
    122 H122       33.3803   28.1357    2.5176 H         1 UNK         0.0811 
    123 H123       32.4234   28.1859    1.0445 H         1 UNK         0.0811 
    124 H124       31.6530   28.4496    2.6061 H         1 UNK         0.0811 
    125 H125       35.0550   30.6895    3.0657 H         1 UNK         0.3204 
    126 H126       34.0412   32.3529    5.2053 H         1 UNK         0.0748 
    127 H127       36.4231   32.3560    5.9500 H         1 UNK         0.0771 
    128 H128       36.8166   31.1212    4.7614 H         1 UNK         0.0771 
    129 H129       36.2929   32.7219    4.2386 H         1 UNK         0.0771 
    130 H130       35.0637   28.9669    4.9328 H         1 UNK         0.2980 
    131 H131       34.9368   27.1832    6.1930 H         1 UNK         0.0545 
    132 H132       36.7522   29.4292    7.2803 H         1 UNK         0.3459 
    133 H133       37.1050   28.8431    8.8867 H         1 UNK         0.3459 
    134 H134       32.6038   28.5321    7.6312 H         1 UNK         0.0616 
    135 H135       32.9719   26.8310    7.7073 H         1 UNK         0.0616 
    136 H136       32.0663   25.1021    6.2031 H         1 UNK         0.0634 
    137 H137       33.4191   25.4766    5.1581 H         1 UNK         0.0634 
@<TRIPOS>BOND
     1    1    2 1    
     2    1   72 1    
     3    1   73 1    
     4    1   74 1    
     5    2    3 2    
     6    2    4 am   BACKBONE|DICT|INTERRES
     7    4    5 1    
     8    4   75 1    
     9    5    6 1    
    10    5   35 1    
    11    5   76 1    
    12    6    7 1    
    13    6   77 1    
    14    6   78 1    
    15    7    8 1    
    16    8    9 1    
    17    8   79 1    
    18    8   80 1    
    19    9   10 ar   
    20    9   14 ar   
    21   10   11 ar   
    22   10   81 1    
    23   11   12 ar   
    24   11   71 1    
    25   12   13 ar   
    26   12   82 1    
    27   13   14 ar   
    28   13   15 1    
    29   14   83 1    
    30   15   16 1    
    31   15   84 1    
    32   15   85 1    
    33   16   17 1    
    34   17   18 1    
    35   17   86 1    
    36   17   87 1    
    37   18   19 1    
    38   18   37 1    
    39   18   88 1    
    40   19   20 am   BACKBONE|DICT|INTERRES
    41   19   89 1    
    42   20   21 2    
    43   20   22 1    
    44   22   23 1    
    45   22   24 1    
    46   22   90 1    
    47   23   91 1    
    48   23   92 1    
    49   23   93 1    
    50   24   25 am   BACKBONE|DICT|INTERRES
    51   24   94 1    
    52   25   26 2    
    53   25   27 1    
    54   27   28 1    
    55   27   29 1    
    56   27   95 1    
    57   28   96 1    
    58   28   97 1    
    59   28   98 1    
    60   29   30 am   BACKBONE|DICT|INTERRES
    61   29   99 1    
    62   30   31 2    
    63   30   32 1    
    64   32   33 1    
    65   32   34 1    
    66   32  100 1    
    67   33  101 1    
    68   33  102 1    
    69   33  103 1    
    70   34   35 am   BACKBONE|DICT|INTERRES
    71   34  104 1    
    72   35   36 2    
    73   37   38 2    
    74   37   39 am   BACKBONE|DICT|INTERRES
    75   39   40 1    
    76   39  105 1    
    77   40   41 1    
    78   40   42 1    
    79   40  106 1    
    80   41  107 1    
    81   41  108 1    
    82   41  109 1    
    83   42   43 2    
    84   42   44 am   BACKBONE|DICT|INTERRES
    85   44   45 1    
    86   44  110 1    
    87   45   46 1    
    88   45   47 1    
    89   45  111 1    
    90   46  112 1    
    91   46  113 1    
    92   46  114 1    
    93   47   48 2    
    94   47   49 am   BACKBONE|DICT|INTERRES
    95   49   50 1    
    96   49  115 1    
    97   50   51 1    
    98   50   52 1    
    99   50  116 1    
   100   51  117 1    
   101   51  118 1    
   102   51  119 1    
   103   52   53 2    
   104   52   54 am   BACKBONE|DICT|INTERRES
   105   54   55 1    
   106   54  120 1    
   107   55   56 1    
   108   55   57 1    
   109   55  121 1    
   110   56  122 1    
   111   56  123 1    
   112   56  124 1    
   113   57   58 2    
   114   57   59 am   BACKBONE|DICT|INTERRES
   115   59   60 1    
   116   59  125 1    
   117   60   61 1    
   118   60   62 1    
   119   60  126 1    
   120   61  127 1    
   121   61  128 1    
   122   61  129 1    
   123   62   63 2    
   124   62   64 am   BACKBONE|DICT|INTERRES
   125   64   65 1    
   126   64  130 1    
   127   65   66 1    
   128   65   69 1    
   129   65  131 1    
   130   66   67 am   BACKBONE|DICT|INTERRES
   131   66   68 2    
   132   67  132 1    
   133   67  133 1    
   134   69   70 1    
   135   69  134 1    
   136   69  135 1    
   137   70   71 1    
   138   71  136 1    
   139   71  137 1    
@<TRIPOS>SUBSTRUCTURE
     1 UNK         1 GROUP             0       ****    0 ROOT    
