@<TRIPOS>MOLECULE
3R136
137   139    1
SMALL
USER_CHARGES


@<TRIPOS>ATOM
      1 CA         25.7233   18.8122   -1.2753 C.3       0 UNK        -0.1979 
      2 C          27.1131   19.4192   -1.4014 C.2       0 UNK         0.4864 
      3 O          27.8884   18.9978   -2.2616 O.2       0 UNK        -0.5359 
      4 N          27.4361   20.3985   -0.5467 N.am      1 UNK        -0.4318 
      5 CA         28.6987   21.1426   -0.5703 C.3       1 UNK         0.0824 
      6 C6         28.9424   21.8686    0.7769 C.3       12 UNK        -0.0944 
      7 S7         30.7004   22.2938    1.0345 S.3       12 UNK        -0.2672 
      8 C8         30.9441   21.8469    2.7817 C.3       12 UNK         0.0333 
      9 C9         30.3671   22.8987    3.7187 C.ar      12 UNK        -0.0807 
     10 C10        31.1648   23.9612    4.1528 C.ar      12 UNK        -0.0894 
     11 C11        30.6544   24.9165    5.0365 C.ar      12 UNK        -0.0804 
     12 C12        29.3383   24.8036    5.4911 C.ar      12 UNK        -0.0824 
     13 C13        28.5177   23.7710    5.0297 C.ar      12 UNK        -0.0762 
     14 C14        29.0418   22.8122    4.1566 C.ar      12 UNK        -0.0782 
     15 C15        27.0592   23.6988    5.4538 C.3       12 UNK         0.0230 
     16 S16        26.0006   24.6689    4.3298 S.3       12 UNK        -0.2608 
     17 C17        26.0742   26.3417    5.0610 C.3       12 UNK        -0.0989 
     18 CA         27.0537   27.3023    4.3388 C.3       5 UNK         0.0716 
     19 N          26.7660   27.4344    2.9061 N.am      5 UNK        -0.4135 
     20 C          27.4449   28.2002    2.0407 C.2       4 UNK         0.5031 
     21 O          28.3410   28.9876    2.3555 O.2       4 UNK        -0.5229 
     22 CA         27.1003   28.0413    0.5532 C.3       4 UNK         0.0329 
     23 CB         26.5602   29.3540   -0.0372 C.3       4 UNK        -0.2001 
     24 N          28.3179   27.6550   -0.1569 N.am      4 UNK        -0.4303 
     25 C          28.8245   26.4170   -0.1424 C.2       3 UNK         0.5044 
     26 O          28.2247   25.4342    0.2978 O.2       3 UNK        -0.5152 
     27 CA         30.2654   26.2665   -0.6485 C.3       3 UNK         0.0319 
     28 CB         31.2423   26.2676    0.5404 C.3       3 UNK        -0.2001 
     29 N          30.4128   25.0179   -1.3920 N.am      3 UNK        -0.4354 
     30 C          30.1013   24.8653   -2.6869 C.2       2 UNK         0.4964 
     31 O          29.7514   25.7906   -3.4207 O.2       2 UNK        -0.5047 
     32 CA         30.1940   23.4419   -3.2676 C.3       2 UNK         0.0288 
     33 CB         31.5751   23.2059   -3.9007 C.3       2 UNK        -0.2113 
     34 N          29.9384   22.4064   -2.2637 N.am      2 UNK        -0.4145 
     35 C          28.7298   22.1343   -1.7526 C.2       1 UNK         0.5006 
     36 O          27.6836   22.6549   -2.1512 O.2       1 UNK        -0.5103 
     37 C          27.0883   28.6691    5.0496 C.2       5 UNK         0.5055 
     38 O          26.0513   29.3304    5.1360 O.2       5 UNK        -0.5220 
     39 N          28.2867   29.0809    5.4894 N.am      6 UNK        -0.4450 
     40 CA         28.6566   30.3678    6.0991 C.3       6 UNK         0.0367 
     41 CB         27.8753   30.6304    7.4008 C.3       6 UNK        -0.1929 
     42 C          28.5710   31.5763    5.1461 C.2       6 UNK         0.5070 
     43 O          29.4408   32.4449    5.2046 O.2       6 UNK        -0.5237 
     44 N          27.5615   31.6074    4.2668 N.am      7 UNK        -0.4739 
     45 CA         27.3177   32.6407    3.2544 C.3       7 UNK         0.0276 
     46 CB         25.9945   32.3351    2.5369 C.3       7 UNK        -0.1927 
     47 C          28.4614   32.8166    2.2378 C.2       7 UNK         0.5013 
     48 O          28.6300   33.9164    1.7105 O.2       7 UNK        -0.5193 
     49 N          29.2494   31.7556    2.0117 N.am      8 UNK        -0.4253 
     50 CA         30.4888   31.7758    1.2296 C.3       8 UNK         0.0242 
     51 CB         30.9094   30.3273    0.9341 C.3       8 UNK        -0.2000 
     52 C          31.6489   32.5519    1.8891 C.2       8 UNK         0.4948 
     53 O          32.6662   32.7604    1.2253 O.2       8 UNK        -0.5275 
     54 N          31.5067   32.9452    3.1657 N.am      9 UNK        -0.4246 
     55 CA         32.4380   33.7118    4.0055 C.3       9 UNK         0.0261 
     56 CB         32.7275   35.1076    3.4173 C.3       9 UNK        -0.1959 
     57 C          33.7309   32.9546    4.3477 C.2       9 UNK         0.5033 
     58 O          33.9973   32.7194    5.5269 O.2       9 UNK        -0.5390 
     59 N          34.4985   32.5724    3.3200 N.am      10 UNK        -0.4215 
     60 CA         35.6735   31.7062    3.4339 C.3       10 UNK         0.0240 
     61 CB         36.5134   31.7980    2.1494 C.3       10 UNK        -0.1982 
     62 C          35.2657   30.2533    3.7243 C.2       10 UNK         0.4970 
     63 O          35.8684   29.6154    4.5875 O.2       10 UNK        -0.4916 
     64 N          34.2284   29.7829    3.0158 N.am      11 UNK        -0.4279 
     65 CA         33.5737   28.4782    3.2013 C.3       11 UNK         0.1003 
     66 C          34.4710   27.2355    2.9031 C.2       11 UNK         0.5709 
     67 N          35.5369   27.3749    2.1233 N.am      11 UNK        -0.7358 
     68 O          34.1930   26.1270    3.3514 O.2       11 UNK        -0.4999 
     69 C69        32.8047   28.4160    4.5562 C.3       12 UNK        -0.0954 
     70 S70        31.2175   27.5307    4.4166 S.3       12 UNK        -0.2268 
     71 C71        31.5204   26.0835    5.4756 C.3       12 UNK         0.0203 
     72 H72        25.1679   18.9521   -2.2024 H         1 UNK         0.0888 
     73 H73        25.7970   17.7428   -1.0794 H         1 UNK         0.0888 
     74 H74        25.1516   19.2663   -0.4660 H         1 UNK         0.0888 
     75 H75        26.7449   20.7284    0.1114 H         1 UNK         0.3017 
     76 H76        29.4970   20.4108   -0.7165 H         1 UNK         0.0873 
     77 H77        28.6287   21.2172    1.5931 H         1 UNK         0.0745 
     78 H78        28.3349   22.7716    0.8670 H         1 UNK         0.0745 
     79 H79        30.5074   20.8679    2.9847 H         1 UNK         0.0705 
     80 H80        32.0143   21.7406    2.9654 H         1 UNK         0.0705 
     81 H81        32.1831   24.0504    3.7976 H         1 UNK         0.1334 
     82 H82        28.9422   25.5415    6.1748 H         1 UNK         0.1417 
     83 H83        28.4119   22.0050    3.8100 H         1 UNK         0.1562 
     84 H84        26.9385   24.0361    6.4842 H         1 UNK         0.0748 
     85 H85        26.7221   22.6612    5.4382 H         1 UNK         0.0748 
     86 H86        26.3308   26.2593    6.1188 H         1 UNK         0.0940 
     87 H87        25.0621   26.7514    5.0372 H         1 UNK         0.0940 
     88 H88        28.0530   26.8720    4.3933 H         1 UNK         0.0703 
     89 H89        26.0578   26.8098    2.5498 H         1 UNK         0.3081 
     90 H90        26.3425   27.2650    0.4260 H         1 UNK         0.0719 
     91 H91        27.2579   30.1816    0.1005 H         1 UNK         0.0809 
     92 H92        26.3639   29.2566   -1.1051 H         1 UNK         0.0809 
     93 H93        25.6194   29.6329    0.4380 H         1 UNK         0.0809 
     94 H94        28.8867   28.4100   -0.5087 H         1 UNK         0.2990 
     95 H95        30.5117   27.1081   -1.2998 H         1 UNK         0.0690 
     96 H96        32.2776   26.1892    0.2085 H         1 UNK         0.0788 
     97 H97        31.0460   25.4427    1.2275 H         1 UNK         0.0788 
     98 H98        31.1527   27.1898    1.1157 H         1 UNK         0.0788 
     99 H99        30.6276   24.1965   -0.8445 H         1 UNK         0.2993 
    100 H100       29.4382   23.3566   -4.0519 H         1 UNK         0.0949 
    101 H101       31.7824   23.9500   -4.6713 H         1 UNK         0.0767 
    102 H102       32.3756   23.2696   -3.1623 H         1 UNK         0.0767 
    103 H103       31.6318   22.2260   -4.3753 H         1 UNK         0.0767 
    104 H104       30.7460   21.9382   -1.8770 H         1 UNK         0.3013 
    105 H105       29.0780   28.4860    5.2764 H         1 UNK         0.3121 
    106 H106       29.7096   30.2660    6.3676 H         1 UNK         0.0774 
    107 H107       28.2443   31.5283    7.8984 H         1 UNK         0.0815 
    108 H108       26.8108   30.7794    7.2178 H         1 UNK         0.0815 
    109 H109       27.9835   29.8035    8.1024 H         1 UNK         0.0815 
    110 H110       26.8881   30.8484    4.3223 H         1 UNK         0.2987 
    111 H111       27.2115   33.5920    3.7800 H         1 UNK         0.0949 
    112 H112       26.0167   31.3564    2.0594 H         1 UNK         0.0806 
    113 H113       25.1551   32.3480    3.2324 H         1 UNK         0.0806 
    114 H114       25.7852   33.0750    1.7630 H         1 UNK         0.0806 
    115 H115       28.9885   30.8638    2.4257 H         1 UNK         0.3010 
    116 H116       30.2808   32.2711    0.2791 H         1 UNK         0.0829 
    117 H117       30.1700   29.8280    0.3105 H         1 UNK         0.0813 
    118 H118       31.8605   30.2835    0.4017 H         1 UNK         0.0813 
    119 H119       31.0115   29.7497    1.8528 H         1 UNK         0.0813 
    120 H120       30.6494   32.6845    3.6454 H         1 UNK         0.3038 
    121 H121       31.9112   33.8664    4.9488 H         1 UNK         0.0769 
    122 H122       31.8054   35.6683    3.2641 H         1 UNK         0.0811 
    123 H123       33.2484   35.0561    2.4611 H         1 UNK         0.0811 
    124 H124       33.3526   35.6913    4.0943 H         1 UNK         0.0811 
    125 H125       34.1423   32.7714    2.3872 H         1 UNK         0.3204 
    126 H126       36.2845   32.0583    4.2680 H         1 UNK         0.0748 
    127 H127       36.8639   32.8164    1.9800 H         1 UNK         0.0771 
    128 H128       37.3958   31.1597    2.2138 H         1 UNK         0.0771 
    129 H129       35.9486   31.4891    1.2688 H         1 UNK         0.0771 
    130 H130       33.8244   30.3794    2.3098 H         1 UNK         0.2980 
    131 H131       32.8350   28.4499    2.4022 H         1 UNK         0.0545 
    132 H132       36.1087   26.5691    1.9261 H         1 UNK         0.3459 
    133 H133       35.7799   28.2736    1.7401 H         1 UNK         0.3459 
    134 H134       33.4261   27.9928    5.3472 H         1 UNK         0.0616 
    135 H135       32.5522   29.4226    4.8941 H         1 UNK         0.0616 
    136 H136       31.3129   26.3451    6.5141 H         1 UNK         0.0634 
    137 H137       32.5716   25.7964    5.4339 H         1 UNK         0.0634 
@<TRIPOS>BOND
     1    1    2 1    
     2    1   72 1    
     3    1   73 1    
     4    1   74 1    
     5    2    3 2    
     6    2    4 am   BACKBONE|DICT|INTERRES
     7    4    5 1    
     8    4   75 1    
     9    5    6 1    
    10    5   35 1    
    11    5   76 1    
    12    6    7 1    
    13    6   77 1    
    14    6   78 1    
    15    7    8 1    
    16    8    9 1    
    17    8   79 1    
    18    8   80 1    
    19    9   10 ar   
    20    9   14 ar   
    21   10   11 ar   
    22   10   81 1    
    23   11   12 ar   
    24   11   71 1    
    25   12   13 ar   
    26   12   82 1    
    27   13   14 ar   
    28   13   15 1    
    29   14   83 1    
    30   15   16 1    
    31   15   84 1    
    32   15   85 1    
    33   16   17 1    
    34   17   18 1    
    35   17   86 1    
    36   17   87 1    
    37   18   19 1    
    38   18   37 1    
    39   18   88 1    
    40   19   20 am   BACKBONE|DICT|INTERRES
    41   19   89 1    
    42   20   21 2    
    43   20   22 1    
    44   22   23 1    
    45   22   24 1    
    46   22   90 1    
    47   23   91 1    
    48   23   92 1    
    49   23   93 1    
    50   24   25 am   BACKBONE|DICT|INTERRES
    51   24   94 1    
    52   25   26 2    
    53   25   27 1    
    54   27   28 1    
    55   27   29 1    
    56   27   95 1    
    57   28   96 1    
    58   28   97 1    
    59   28   98 1    
    60   29   30 am   BACKBONE|DICT|INTERRES
    61   29   99 1    
    62   30   31 2    
    63   30   32 1    
    64   32   33 1    
    65   32   34 1    
    66   32  100 1    
    67   33  101 1    
    68   33  102 1    
    69   33  103 1    
    70   34   35 am   BACKBONE|DICT|INTERRES
    71   34  104 1    
    72   35   36 2    
    73   37   38 2    
    74   37   39 am   BACKBONE|DICT|INTERRES
    75   39   40 1    
    76   39  105 1    
    77   40   41 1    
    78   40   42 1    
    79   40  106 1    
    80   41  107 1    
    81   41  108 1    
    82   41  109 1    
    83   42   43 2    
    84   42   44 am   BACKBONE|DICT|INTERRES
    85   44   45 1    
    86   44  110 1    
    87   45   46 1    
    88   45   47 1    
    89   45  111 1    
    90   46  112 1    
    91   46  113 1    
    92   46  114 1    
    93   47   48 2    
    94   47   49 am   BACKBONE|DICT|INTERRES
    95   49   50 1    
    96   49  115 1    
    97   50   51 1    
    98   50   52 1    
    99   50  116 1    
   100   51  117 1    
   101   51  118 1    
   102   51  119 1    
   103   52   53 2    
   104   52   54 am   BACKBONE|DICT|INTERRES
   105   54   55 1    
   106   54  120 1    
   107   55   56 1    
   108   55   57 1    
   109   55  121 1    
   110   56  122 1    
   111   56  123 1    
   112   56  124 1    
   113   57   58 2    
   114   57   59 am   BACKBONE|DICT|INTERRES
   115   59   60 1    
   116   59  125 1    
   117   60   61 1    
   118   60   62 1    
   119   60  126 1    
   120   61  127 1    
   121   61  128 1    
   122   61  129 1    
   123   62   63 2    
   124   62   64 am   BACKBONE|DICT|INTERRES
   125   64   65 1    
   126   64  130 1    
   127   65   66 1    
   128   65   69 1    
   129   65  131 1    
   130   66   67 am   BACKBONE|DICT|INTERRES
   131   66   68 2    
   132   67  132 1    
   133   67  133 1    
   134   69   70 1    
   135   69  134 1    
   136   69  135 1    
   137   70   71 1    
   138   71  136 1    
   139   71  137 1    
@<TRIPOS>SUBSTRUCTURE
     1 UNK         1 GROUP             0       ****    0 ROOT    
