@<TRIPOS>MOLECULE
3R136
137   139    1
SMALL
USER_CHARGES


@<TRIPOS>ATOM
      1 CA         25.8291   26.3743    4.1004 C.3       0 UNK        -0.1979 
      2 C          26.5385   25.0296    4.0545 C.2       0 UNK         0.4864 
      3 O          26.1671   24.1080    4.7836 O.2       0 UNK        -0.5359 
      4 N          27.5539   24.9005    3.1945 N.am      1 UNK        -0.4318 
      5 CA         28.3835   23.7092    3.0094 C.3       1 UNK         0.0824 
      6 C6         29.7878   24.1378    2.5199 C.3       12 UNK        -0.0944 
      7 S7         31.0354   22.8120    2.5785 S.3       12 UNK        -0.2672 
      8 C8         31.6129   22.8343    0.8482 C.3       12 UNK         0.0333 
      9 C9         32.2660   24.1611    0.4752 C.ar      12 UNK        -0.0807 
     10 C10        33.3810   24.6081    1.1867 C.ar      12 UNK        -0.0894 
     11 C11        34.0009   25.8150    0.8593 C.ar      12 UNK        -0.0804 
     12 C12        33.5073   26.5737   -0.2081 C.ar      12 UNK        -0.0824 
     13 C13        32.4035   26.1284   -0.9470 C.ar      12 UNK        -0.0762 
     14 C14        31.7782   24.9276   -0.5900 C.ar      12 UNK        -0.0782 
     15 C15        31.9490   26.8985   -2.1832 C.3       12 UNK         0.0230 
     16 S16        30.8653   28.3115   -1.8002 S.3       12 UNK        -0.2608 
     17 C17        29.2083   27.5373   -1.7480 C.3       12 UNK        -0.0989 
     18 CA         28.2800   28.1890   -0.6895 C.3       5 UNK         0.0716 
     19 N          26.8764   27.8491   -0.9222 N.am      5 UNK        -0.4135 
     20 C          25.8345   28.5188   -0.4094 C.2       4 UNK         0.5031 
     21 O          25.9468   29.5397    0.2710 O.2       4 UNK        -0.5229 
     22 CA         24.4232   27.9777   -0.7177 C.3       4 UNK         0.0329 
     23 CB         23.7905   28.7618   -1.8793 C.3       4 UNK        -0.2001 
     24 N          24.3912   26.5441   -1.0297 N.am      4 UNK        -0.4303 
     25 C          24.6456   25.5774   -0.1388 C.2       3 UNK         0.5044 
     26 O          24.8826   25.7954    1.0528 O.2       3 UNK        -0.5152 
     27 CA         24.6631   24.1347   -0.6668 C.3       3 UNK         0.0319 
     28 CB         25.7153   23.9643   -1.7854 C.3       3 UNK        -0.2001 
     29 N          24.9880   23.2769    0.4656 N.am      3 UNK        -0.4354 
     30 C          25.0063   21.9419    0.5247 C.2       2 UNK         0.4964 
     31 O          24.6180   21.2111   -0.3884 O.2       2 UNK        -0.5047 
     32 CA         25.5600   21.3270    1.8308 C.3       2 UNK         0.0288 
     33 CB         26.1784   19.9295    1.6124 C.3       2 UNK        -0.2113 
     34 N          26.5054   22.2064    2.5406 N.am      2 UNK        -0.4145 
     35 C          27.6614   22.7109    2.0758 C.2       1 UNK         0.5006 
     36 O          28.1159   22.4600    0.9578 O.2       1 UNK        -0.5103 
     37 C          28.7183   27.7863    0.7299 C.2       5 UNK         0.5055 
     38 O          28.3130   26.7355    1.2279 O.2       5 UNK        -0.5220 
     39 N          29.6114   28.5960    1.2995 N.am      6 UNK        -0.4450 
     40 CA         30.5078   28.2557    2.3998 C.3       6 UNK         0.0367 
     41 CB         29.7603   28.2454    3.7489 C.3       6 UNK        -0.1929 
     42 C          31.6819   29.2472    2.3618 C.2       6 UNK         0.5070 
     43 O          32.0851   29.7611    3.4075 O.2       6 UNK        -0.5237 
     44 N          32.1506   29.5671    1.1428 N.am      7 UNK        -0.4739 
     45 CA         32.9851   30.7269    0.8007 C.3       7 UNK         0.0276 
     46 CB         34.4268   30.5556    1.3266 C.3       7 UNK        -0.1927 
     47 C          32.2934   32.0329    1.2433 C.2       7 UNK         0.5013 
     48 O          31.0831   32.1631    1.0436 O.2       7 UNK        -0.5193 
     49 N          33.0289   32.9489    1.8848 N.am      8 UNK        -0.4253 
     50 CA         32.4988   34.1684    2.5039 C.3       8 UNK         0.0242 
     51 CB         33.6099   35.2357    2.5261 C.3       8 UNK        -0.2000 
     52 C          31.9152   33.8865    3.9062 C.2       8 UNK         0.4948 
     53 O          32.2559   34.5880    4.8602 O.2       8 UNK        -0.5275 
     54 N          31.0699   32.8471    4.0046 N.am      9 UNK        -0.4246 
     55 CA         30.4697   32.2848    5.2236 C.3       9 UNK         0.0261 
     56 CB         29.4176   33.2513    5.8076 C.3       9 UNK        -0.1959 
     57 C          31.5333   31.8517    6.2542 C.2       9 UNK         0.5033 
     58 O          31.4343   32.2000    7.4332 O.2       9 UNK        -0.5390 
     59 N          32.5478   31.1252    5.7711 N.am      10 UNK        -0.4215 
     60 CA         33.7427   30.7352    6.5200 C.3       10 UNK         0.0240 
     61 CB         34.9726   31.3764    5.8548 C.3       10 UNK        -0.1982 
     62 C          33.9213   29.2125    6.6022 C.2       10 UNK         0.4970 
     63 O          34.4761   28.7383    7.5944 O.2       10 UNK        -0.4916 
     64 N          33.4744   28.4719    5.5785 N.am      11 UNK        -0.4279 
     65 CA         33.6538   27.0112    5.4794 C.3       11 UNK         0.1003 
     66 C          32.6573   26.1772    6.3367 C.2       11 UNK         0.5709 
     67 N          31.6535   26.7772    6.9661 N.am      11 UNK        -0.7358 
     68 O          32.8061   24.9625    6.4433 O.2       11 UNK        -0.4999 
     69 C69        33.6733   26.5179    4.0080 C.3       12 UNK        -0.0954 
     70 S70        34.8430   27.4458    2.9582 S.3       12 UNK        -0.2268 
     71 C71        35.2332   26.2597    1.6358 C.3       12 UNK         0.0203 
     72 H72        24.7642   26.2425    3.9107 H         1 UNK         0.0888 
     73 H73        25.9507   26.8323    5.0814 H         1 UNK         0.0888 
     74 H74        26.2205   27.0618    3.3498 H         1 UNK         0.0888 
     75 H75        27.7649   25.6622    2.5477 H         1 UNK         0.3017 
     76 H76        28.5066   23.2183    3.9773 H         1 UNK         0.0873 
     77 H77        30.1656   24.9481    3.1459 H         1 UNK         0.0745 
     78 H78        29.7245   24.5523    1.5129 H         1 UNK         0.0745 
     79 H79        30.7724   22.6125    0.1887 H         1 UNK         0.0705 
     80 H80        32.3362   22.0303    0.7069 H         1 UNK         0.0705 
     81 H81        33.7657   24.0098    2.0013 H         1 UNK         0.1334 
     82 H82        34.0003   27.4971   -0.4802 H         1 UNK         0.1417 
     83 H83        30.9295   24.5739   -1.1594 H         1 UNK         0.1562 
     84 H84        31.4495   26.2342   -2.8903 H         1 UNK         0.0748 
     85 H85        32.8283   27.2765   -2.7070 H         1 UNK         0.0748 
     86 H86        29.2967   26.4619   -1.5809 H         1 UNK         0.0940 
     87 H87        28.7746   27.6504   -2.7431 H         1 UNK         0.0940 
     88 H88        28.3644   29.2743   -0.7852 H         1 UNK         0.0703 
     89 H89        26.6948   27.0009   -1.4354 H         1 UNK         0.3081 
     90 H90        23.8135   28.1412    0.1738 H         1 UNK         0.0719 
     91 H91        23.7721   29.8312   -1.6638 H         1 UNK         0.0809 
     92 H92        24.3450   28.6267   -2.8088 H         1 UNK         0.0809 
     93 H93        22.7599   28.4518   -2.0534 H         1 UNK         0.0809 
     94 H94        24.1848   26.2895   -1.9853 H         1 UNK         0.2990 
     95 H95        23.6682   23.8809   -1.0370 H         1 UNK         0.0690 
     96 H96        25.7468   22.9391   -2.1539 H         1 UNK         0.0788 
     97 H97        26.7167   24.2179   -1.4335 H         1 UNK         0.0788 
     98 H98        25.4964   24.5972   -2.6457 H         1 UNK         0.0788 
     99 H99        25.2713   23.8091    1.2806 H         1 UNK         0.2993 
    100 H100       24.6997   21.2082    2.4913 H         1 UNK         0.0949 
    101 H101       27.0098   19.9615    0.9074 H         1 UNK         0.0767 
    102 H102       26.5475   19.5086    2.5477 H         1 UNK         0.0767 
    103 H103       25.4410   19.2315    1.2140 H         1 UNK         0.0767 
    104 H104       26.2041   22.5370    3.4531 H         1 UNK         0.3013 
    105 H105       29.8376   29.4646    0.8312 H         1 UNK         0.3121 
    106 H106       30.9196   27.2621    2.2122 H         1 UNK         0.0774 
    107 H107       30.4377   28.0133    4.5707 H         1 UNK         0.0815 
    108 H108       29.3032   29.2119    3.9599 H         1 UNK         0.0815 
    109 H109       28.9724   27.4935    3.7650 H         1 UNK         0.0815 
    110 H110       31.7843   29.0584    0.3482 H         1 UNK         0.2987 
    111 H111       33.0313   30.7658   -0.2888 H         1 UNK         0.0949 
    112 H112       35.0747   31.3663    0.9917 H         1 UNK         0.0806 
    113 H113       34.8665   29.6329    0.9492 H         1 UNK         0.0806 
    114 H114       34.4680   30.5195    2.4155 H         1 UNK         0.0806 
    115 H115       34.0051   32.7491    2.0483 H         1 UNK         0.3010 
    116 H116       31.6818   34.5557    1.8909 H         1 UNK         0.0829 
    117 H117       34.4536   34.9278    3.1452 H         1 UNK         0.0813 
    118 H118       33.9852   35.4391    1.5230 H         1 UNK         0.0813 
    119 H119       33.2381   36.1798    2.9269 H         1 UNK         0.0813 
    120 H120       30.8702   32.3465    3.1454 H         1 UNK         0.3038 
    121 H121       29.9502   31.3750    4.9207 H         1 UNK         0.0769 
    122 H122       28.8978   32.7983    6.6527 H         1 UNK         0.0811 
    123 H123       28.6630   33.5116    5.0656 H         1 UNK         0.0811 
    124 H124       29.8715   34.1768    6.1636 H         1 UNK         0.0811 
    125 H125       32.4865   30.8114    4.8028 H         1 UNK         0.3204 
    126 H126       33.6831   31.1052    7.5457 H         1 UNK         0.0748 
    127 H127       35.8855   31.1300    6.3989 H         1 UNK         0.0771 
    128 H128       35.1010   31.0331    4.8274 H         1 UNK         0.0771 
    129 H129       34.8889   32.4634    5.8362 H         1 UNK         0.0771 
    130 H130       33.0294   28.9199    4.7834 H         1 UNK         0.2980 
    131 H131       34.6397   26.7827    5.8890 H         1 UNK         0.0545 
    132 H132       31.5377   27.7753    6.9069 H         1 UNK         0.3459 
    133 H133       31.0219   26.2253    7.5243 H         1 UNK         0.3459 
    134 H134       33.9491   25.4626    3.9762 H         1 UNK         0.0616 
    135 H135       32.6805   26.5872    3.5651 H         1 UNK         0.0616 
    136 H136       35.7434   25.3986    2.0702 H         1 UNK         0.0634 
    137 H137       35.9475   26.7221    0.9532 H         1 UNK         0.0634 
@<TRIPOS>BOND
     1    1    2 1    
     2    1   72 1    
     3    1   73 1    
     4    1   74 1    
     5    2    3 2    
     6    2    4 am   BACKBONE|DICT|INTERRES
     7    4    5 1    
     8    4   75 1    
     9    5    6 1    
    10    5   35 1    
    11    5   76 1    
    12    6    7 1    
    13    6   77 1    
    14    6   78 1    
    15    7    8 1    
    16    8    9 1    
    17    8   79 1    
    18    8   80 1    
    19    9   10 ar   
    20    9   14 ar   
    21   10   11 ar   
    22   10   81 1    
    23   11   12 ar   
    24   11   71 1    
    25   12   13 ar   
    26   12   82 1    
    27   13   14 ar   
    28   13   15 1    
    29   14   83 1    
    30   15   16 1    
    31   15   84 1    
    32   15   85 1    
    33   16   17 1    
    34   17   18 1    
    35   17   86 1    
    36   17   87 1    
    37   18   19 1    
    38   18   37 1    
    39   18   88 1    
    40   19   20 am   BACKBONE|DICT|INTERRES
    41   19   89 1    
    42   20   21 2    
    43   20   22 1    
    44   22   23 1    
    45   22   24 1    
    46   22   90 1    
    47   23   91 1    
    48   23   92 1    
    49   23   93 1    
    50   24   25 am   BACKBONE|DICT|INTERRES
    51   24   94 1    
    52   25   26 2    
    53   25   27 1    
    54   27   28 1    
    55   27   29 1    
    56   27   95 1    
    57   28   96 1    
    58   28   97 1    
    59   28   98 1    
    60   29   30 am   BACKBONE|DICT|INTERRES
    61   29   99 1    
    62   30   31 2    
    63   30   32 1    
    64   32   33 1    
    65   32   34 1    
    66   32  100 1    
    67   33  101 1    
    68   33  102 1    
    69   33  103 1    
    70   34   35 am   BACKBONE|DICT|INTERRES
    71   34  104 1    
    72   35   36 2    
    73   37   38 2    
    74   37   39 am   BACKBONE|DICT|INTERRES
    75   39   40 1    
    76   39  105 1    
    77   40   41 1    
    78   40   42 1    
    79   40  106 1    
    80   41  107 1    
    81   41  108 1    
    82   41  109 1    
    83   42   43 2    
    84   42   44 am   BACKBONE|DICT|INTERRES
    85   44   45 1    
    86   44  110 1    
    87   45   46 1    
    88   45   47 1    
    89   45  111 1    
    90   46  112 1    
    91   46  113 1    
    92   46  114 1    
    93   47   48 2    
    94   47   49 am   BACKBONE|DICT|INTERRES
    95   49   50 1    
    96   49  115 1    
    97   50   51 1    
    98   50   52 1    
    99   50  116 1    
   100   51  117 1    
   101   51  118 1    
   102   51  119 1    
   103   52   53 2    
   104   52   54 am   BACKBONE|DICT|INTERRES
   105   54   55 1    
   106   54  120 1    
   107   55   56 1    
   108   55   57 1    
   109   55  121 1    
   110   56  122 1    
   111   56  123 1    
   112   56  124 1    
   113   57   58 2    
   114   57   59 am   BACKBONE|DICT|INTERRES
   115   59   60 1    
   116   59  125 1    
   117   60   61 1    
   118   60   62 1    
   119   60  126 1    
   120   61  127 1    
   121   61  128 1    
   122   61  129 1    
   123   62   63 2    
   124   62   64 am   BACKBONE|DICT|INTERRES
   125   64   65 1    
   126   64  130 1    
   127   65   66 1    
   128   65   69 1    
   129   65  131 1    
   130   66   67 am   BACKBONE|DICT|INTERRES
   131   66   68 2    
   132   67  132 1    
   133   67  133 1    
   134   69   70 1    
   135   69  134 1    
   136   69  135 1    
   137   70   71 1    
   138   71  136 1    
   139   71  137 1    
@<TRIPOS>SUBSTRUCTURE
     1 UNK         1 GROUP             0       ****    0 ROOT    
