@<TRIPOS>MOLECULE
3R136
137   139    1
SMALL
USER_CHARGES


@<TRIPOS>ATOM
      1 CA         30.7595   22.6728   -3.4647 C.3       0 UNK        -0.1979 
      2 C          30.1217   23.1280   -2.1617 C.2       0 UNK         0.4864 
      3 O          29.4649   24.1703   -2.1378 O.2       0 UNK        -0.5359 
      4 N          30.2962   22.3479   -1.0839 N.am      1 UNK        -0.4318 
      5 CA         29.8124   22.6227    0.2783 C.3       1 UNK         0.0824 
      6 C6         30.1807   21.4861    1.2615 C.3       12 UNK        -0.0944 
      7 S7         31.9672   21.5004    1.6320 S.3       12 UNK        -0.2672 
      8 C8         31.9945   21.8947    3.4137 C.3       12 UNK         0.0333 
      9 C9         31.3742   23.2501    3.7337 C.ar      12 UNK        -0.0807 
     10 C10        32.0812   24.4307    3.4837 C.ar      12 UNK        -0.0894 
     11 C11        31.5177   25.6729    3.7946 C.ar      12 UNK        -0.0804 
     12 C12        30.2378   25.7287    4.3536 C.ar      12 UNK        -0.0824 
     13 C13        29.5223   24.5576    4.6129 C.ar      12 UNK        -0.0762 
     14 C14        30.0995   23.3219    4.3057 C.ar      12 UNK        -0.0782 
     15 C15        28.1360   24.6133    5.2401 C.3       12 UNK         0.0230 
     16 S16        26.8428   24.2337    4.0164 S.3       12 UNK        -0.2608 
     17 C17        26.0378   25.8403    3.6997 C.3       12 UNK        -0.0989 
     18 CA         26.9590   27.0035    3.2461 C.3       5 UNK         0.0716 
     19 N          27.7102   26.7134    2.0139 N.am      5 UNK        -0.4135 
     20 C          28.6310   27.5352    1.4826 C.2       4 UNK         0.5031 
     21 O          28.9979   28.5772    2.0226 O.2       4 UNK        -0.5229 
     22 CA         29.2044   27.2015    0.0937 C.3       4 UNK         0.0329 
     23 CB         30.5603   26.4921    0.2216 C.3       4 UNK        -0.2001 
     24 N          28.3107   26.4307   -0.7769 N.am      4 UNK        -0.4303 
     25 C          27.0924   26.8263   -1.1782 C.2       3 UNK         0.5044 
     26 O          26.5400   27.8510   -0.7774 O.2       3 UNK        -0.5152 
     27 CA         26.3624   25.9234   -2.1835 C.3       3 UNK         0.0319 
     28 CB         26.9096   26.1360   -3.6043 C.3       3 UNK        -0.2001 
     29 N          26.4968   24.5165   -1.8101 N.am      3 UNK        -0.4354 
     30 C          25.6397   23.8656   -1.0105 C.2       2 UNK         0.4964 
     31 O          24.5735   24.3402   -0.6172 O.2       2 UNK        -0.5047 
     32 CA         26.0399   22.4502   -0.5483 C.3       2 UNK         0.0288 
     33 CB         25.4449   21.3890   -1.4883 C.3       2 UNK        -0.2113 
     34 N          27.4869   22.2359   -0.4329 N.am      2 UNK        -0.4145 
     35 C          28.3090   22.9519    0.3496 C.2       1 UNK         0.5006 
     36 O          27.9360   23.8869    1.0555 O.2       1 UNK        -0.5103 
     37 C          26.1307   28.3093    3.1784 C.2       5 UNK         0.5055 
     38 O          25.8601   28.8912    4.2303 O.2       5 UNK        -0.5220 
     39 N          25.7333   28.7478    1.9739 N.am      6 UNK        -0.4450 
     40 CA         24.9871   29.9905    1.7611 C.3       6 UNK         0.0367 
     41 CB         24.0996   29.8346    0.5145 C.3       6 UNK        -0.1929 
     42 C          25.8956   31.2274    1.6246 C.2       6 UNK         0.5070 
     43 O          25.3755   32.3442    1.6326 O.2       6 UNK        -0.5237 
     44 N          27.2131   31.0324    1.4795 N.am      7 UNK        -0.4739 
     45 CA         28.1964   32.1026    1.3164 C.3       7 UNK         0.0276 
     46 CB         29.2605   31.6408    0.3052 C.3       7 UNK        -0.1927 
     47 C          28.8597   32.4398    2.6585 C.2       7 UNK         0.5013 
     48 O          28.9693   31.5770    3.5323 O.2       7 UNK        -0.5193 
     49 N          29.3719   33.6714    2.7725 N.am      8 UNK        -0.4253 
     50 CA         30.2069   34.1315    3.8879 C.3       8 UNK         0.0242 
     51 CB         29.9849   35.6427    4.0906 C.3       8 UNK        -0.2000 
     52 C          31.6868   33.7736    3.6390 C.2       8 UNK         0.4948 
     53 O          32.5524   34.6510    3.6692 O.2       8 UNK        -0.5275 
     54 N          31.9412   32.4942    3.3430 N.am      9 UNK        -0.4246 
     55 CA         33.2558   31.9492    3.0126 C.3       9 UNK         0.0261 
     56 CB         33.0555   30.6776    2.1698 C.3       9 UNK        -0.1959 
     57 C          34.0769   31.6377    4.2733 C.2       9 UNK         0.5033 
     58 O          33.5105   31.4010    5.3437 O.2       9 UNK        -0.5390 
     59 N          35.4041   31.5902    4.1081 N.am      10 UNK        -0.4215 
     60 CA         36.3552   31.1247    5.1176 C.3       10 UNK         0.0240 
     61 CB         37.7026   31.8421    4.9107 C.3       10 UNK        -0.1982 
     62 C          36.4792   29.5955    5.0143 C.2       10 UNK         0.4970 
     63 O          37.4203   29.0942    4.3965 O.2       10 UNK        -0.4916 
     64 N          35.4858   28.8894    5.5654 N.am      11 UNK        -0.4279 
     65 CA         35.3258   27.4282    5.4606 C.3       11 UNK         0.1003 
     66 C          36.3872   26.5842    6.2254 C.2       11 UNK         0.5709 
     67 N          37.1639   27.1578    7.1370 N.am      11 UNK        -0.7358 
     68 O          36.5101   25.3862    5.9816 O.2       11 UNK        -0.4999 
     69 C69        33.8906   26.9721    5.8392 C.3       12 UNK        -0.0954 
     70 S70        32.5811   27.9369    5.0134 S.3       12 UNK        -0.2268 
     71 C71        32.2749   26.9615    3.5090 C.3       12 UNK         0.0203 
     72 H72        31.4605   23.4275   -3.8200 H         1 UNK         0.0888 
     73 H73        31.3005   21.7339   -3.3488 H         1 UNK         0.0888 
     74 H74        29.9938   22.5329   -4.2271 H         1 UNK         0.0888 
     75 H75        30.8566   21.5122   -1.1746 H         1 UNK         0.3017 
     76 H76        30.3283   23.5228    0.6100 H         1 UNK         0.0873 
     77 H77        29.9129   20.5127    0.8466 H         1 UNK         0.0745 
     78 H78        29.6225   21.5704    2.1948 H         1 UNK         0.0745 
     79 H79        31.4864   21.0995    3.9615 H         1 UNK         0.0705 
     80 H80        33.0296   21.8835    3.7582 H         1 UNK         0.0705 
     81 H81        33.0686   24.3790    3.0455 H         1 UNK         0.1334 
     82 H82        29.8108   26.6918    4.5939 H         1 UNK         0.1417 
     83 H83        29.5474   22.4146    4.5099 H         1 UNK         0.1562 
     84 H84        27.9504   25.5793    5.7109 H         1 UNK         0.0748 
     85 H85        28.0799   23.8762    6.0424 H         1 UNK         0.0748 
     86 H86        25.5092   26.1119    4.6162 H         1 UNK         0.0940 
     87 H87        25.2617   25.6696    2.9508 H         1 UNK         0.0940 
     88 H88        27.6973   27.1757    4.0277 H         1 UNK         0.0703 
     89 H89        27.5355   25.8174    1.5672 H         1 UNK         0.3081 
     90 H90        29.3761   28.1512   -0.4174 H         1 UNK         0.0719 
     91 H91        31.3240   27.1905    0.5629 H         1 UNK         0.0809 
     92 H92        30.5197   25.6812    0.9472 H         1 UNK         0.0809 
     93 H93        30.9026   26.0865   -0.7303 H         1 UNK         0.0809 
     94 H94        28.6946   25.5771   -1.1760 H         1 UNK         0.2990 
     95 H95        25.3077   26.2074   -2.1868 H         1 UNK         0.0690 
     96 H96        26.3641   25.5342   -4.3313 H         1 UNK         0.0788 
     97 H97        27.9658   25.8739   -3.6792 H         1 UNK         0.0788 
     98 H98        26.8101   27.1792   -3.9071 H         1 UNK         0.0788 
     99 H99        27.3770   24.0726   -2.0470 H         1 UNK         0.2993 
    100 H100       25.6124   22.3077    0.4467 H         1 UNK         0.0949 
    101 H101       25.6301   20.3806   -1.1177 H         1 UNK         0.0767 
    102 H102       24.3636   21.5064   -1.5748 H         1 UNK         0.0767 
    103 H103       25.8622   21.4612   -2.4937 H         1 UNK         0.0767 
    104 H104       27.8862   21.5035   -1.0017 H         1 UNK         0.3013 
    105 H105       26.0169   28.2464    1.1365 H         1 UNK         0.3121 
    106 H106       24.3295   30.1651    2.6155 H         1 UNK         0.0774 
    107 H107       24.6931   29.7229   -0.3933 H         1 UNK         0.0815 
    108 H108       23.4625   30.7094    0.3782 H         1 UNK         0.0815 
    109 H109       23.4443   28.9674    0.5972 H         1 UNK         0.0815 
    110 H110       27.5932   30.0996    1.5995 H         1 UNK         0.2987 
    111 H111       27.7128   33.0007    0.9254 H         1 UNK         0.0949 
    112 H112       29.8109   30.7707    0.6656 H         1 UNK         0.0806 
    113 H113       28.8101   31.3776   -0.6520 H         1 UNK         0.0806 
    114 H114       29.9901   32.4287    0.1139 H         1 UNK         0.0806 
    115 H115       29.2793   34.3091    1.9943 H         1 UNK         0.3010 
    116 H116       29.9026   33.6257    4.8071 H         1 UNK         0.0829 
    117 H117       30.5624   36.0119    4.9393 H         1 UNK         0.0813 
    118 H118       30.2873   36.2180    3.2147 H         1 UNK         0.0813 
    119 H119       28.9372   35.8656    4.2934 H         1 UNK         0.0813 
    120 H120       31.1747   31.8345    3.4022 H         1 UNK         0.3038 
    121 H121       33.8017   32.6820    2.4140 H         1 UNK         0.0769 
    122 H122       32.5404   30.8998    1.2349 H         1 UNK         0.0811 
    123 H123       32.4660   29.9324    2.7040 H         1 UNK         0.0811 
    124 H124       34.0092   30.2156    1.9113 H         1 UNK         0.0811 
    125 H125       35.7830   31.7638    3.1876 H         1 UNK         0.3204 
    126 H126       35.9930   31.3747    6.1174 H         1 UNK         0.0748 
    127 H127       38.4402   31.5021    5.6388 H         1 UNK         0.0771 
    128 H128       38.1159   31.6596    3.9178 H         1 UNK         0.0771 
    129 H129       37.5985   32.9202    5.0355 H         1 UNK         0.0771 
    130 H130       34.7208   29.3869    6.0013 H         1 UNK         0.2980 
    131 H131       35.4662   27.1822    4.4063 H         1 UNK         0.0545 
    132 H132       37.8498   26.6014    7.6223 H         1 UNK         0.3459 
    133 H133       37.0704   28.1391    7.3430 H         1 UNK         0.3459 
    134 H134       33.7370   27.0727    6.9150 H         1 UNK         0.0616 
    135 H135       33.7491   25.9139    5.6122 H         1 UNK         0.0616 
    136 H136       31.6790   27.5711    2.8303 H         1 UNK         0.0634 
    137 H137       33.2215   26.7652    3.0034 H         1 UNK         0.0634 
@<TRIPOS>BOND
     1    1    2 1    
     2    1   72 1    
     3    1   73 1    
     4    1   74 1    
     5    2    3 2    
     6    2    4 am   BACKBONE|DICT|INTERRES
     7    4    5 1    
     8    4   75 1    
     9    5    6 1    
    10    5   35 1    
    11    5   76 1    
    12    6    7 1    
    13    6   77 1    
    14    6   78 1    
    15    7    8 1    
    16    8    9 1    
    17    8   79 1    
    18    8   80 1    
    19    9   10 ar   
    20    9   14 ar   
    21   10   11 ar   
    22   10   81 1    
    23   11   12 ar   
    24   11   71 1    
    25   12   13 ar   
    26   12   82 1    
    27   13   14 ar   
    28   13   15 1    
    29   14   83 1    
    30   15   16 1    
    31   15   84 1    
    32   15   85 1    
    33   16   17 1    
    34   17   18 1    
    35   17   86 1    
    36   17   87 1    
    37   18   19 1    
    38   18   37 1    
    39   18   88 1    
    40   19   20 am   BACKBONE|DICT|INTERRES
    41   19   89 1    
    42   20   21 2    
    43   20   22 1    
    44   22   23 1    
    45   22   24 1    
    46   22   90 1    
    47   23   91 1    
    48   23   92 1    
    49   23   93 1    
    50   24   25 am   BACKBONE|DICT|INTERRES
    51   24   94 1    
    52   25   26 2    
    53   25   27 1    
    54   27   28 1    
    55   27   29 1    
    56   27   95 1    
    57   28   96 1    
    58   28   97 1    
    59   28   98 1    
    60   29   30 am   BACKBONE|DICT|INTERRES
    61   29   99 1    
    62   30   31 2    
    63   30   32 1    
    64   32   33 1    
    65   32   34 1    
    66   32  100 1    
    67   33  101 1    
    68   33  102 1    
    69   33  103 1    
    70   34   35 am   BACKBONE|DICT|INTERRES
    71   34  104 1    
    72   35   36 2    
    73   37   38 2    
    74   37   39 am   BACKBONE|DICT|INTERRES
    75   39   40 1    
    76   39  105 1    
    77   40   41 1    
    78   40   42 1    
    79   40  106 1    
    80   41  107 1    
    81   41  108 1    
    82   41  109 1    
    83   42   43 2    
    84   42   44 am   BACKBONE|DICT|INTERRES
    85   44   45 1    
    86   44  110 1    
    87   45   46 1    
    88   45   47 1    
    89   45  111 1    
    90   46  112 1    
    91   46  113 1    
    92   46  114 1    
    93   47   48 2    
    94   47   49 am   BACKBONE|DICT|INTERRES
    95   49   50 1    
    96   49  115 1    
    97   50   51 1    
    98   50   52 1    
    99   50  116 1    
   100   51  117 1    
   101   51  118 1    
   102   51  119 1    
   103   52   53 2    
   104   52   54 am   BACKBONE|DICT|INTERRES
   105   54   55 1    
   106   54  120 1    
   107   55   56 1    
   108   55   57 1    
   109   55  121 1    
   110   56  122 1    
   111   56  123 1    
   112   56  124 1    
   113   57   58 2    
   114   57   59 am   BACKBONE|DICT|INTERRES
   115   59   60 1    
   116   59  125 1    
   117   60   61 1    
   118   60   62 1    
   119   60  126 1    
   120   61  127 1    
   121   61  128 1    
   122   61  129 1    
   123   62   63 2    
   124   62   64 am   BACKBONE|DICT|INTERRES
   125   64   65 1    
   126   64  130 1    
   127   65   66 1    
   128   65   69 1    
   129   65  131 1    
   130   66   67 am   BACKBONE|DICT|INTERRES
   131   66   68 2    
   132   67  132 1    
   133   67  133 1    
   134   69   70 1    
   135   69  134 1    
   136   69  135 1    
   137   70   71 1    
   138   71  136 1    
   139   71  137 1    
@<TRIPOS>SUBSTRUCTURE
     1 UNK         1 GROUP             0       ****    0 ROOT    
