@<TRIPOS>MOLECULE
3R136
137   139    1
SMALL
USER_CHARGES


@<TRIPOS>ATOM
      1 CA         32.6323   20.2796   -1.6447 C.3       0 UNK        -0.1979 
      2 C          32.3802   21.5390   -0.8291 C.2       0 UNK         0.4864 
      3 O          33.2706   22.3814   -0.7153 O.2       0 UNK        -0.5359 
      4 N          31.1712   21.6755   -0.2683 N.am      1 UNK        -0.4318 
      5 CA         30.7610   22.8024    0.5828 C.3       1 UNK         0.0824 
      6 C6         29.7156   22.3836    1.6478 C.3       12 UNK        -0.0944 
      7 S7         30.2463   20.9622    2.6628 S.3       12 UNK        -0.2672 
      8 C8         31.4324   21.7343    3.8185 C.3       12 UNK         0.0333 
      9 C9         30.8318   22.8135    4.7169 C.ar      12 UNK        -0.0807 
     10 C10        31.5753   23.9629    5.0076 C.ar      12 UNK        -0.0894 
     11 C11        31.0563   24.9557    5.8440 C.ar      12 UNK        -0.0804 
     12 C12        29.7898   24.7852    6.4071 C.ar      12 UNK        -0.0824 
     13 C13        29.0282   23.6504    6.1155 C.ar      12 UNK        -0.0762 
     14 C14        29.5591   22.6636    5.2808 C.ar      12 UNK        -0.0782 
     15 C15        27.6309   23.4881    6.6955 C.3       12 UNK         0.0230 
     16 S16        26.3705   24.2698    5.6353 S.3       12 UNK        -0.2608 
     17 C17        26.6285   26.0382    6.0061 C.3       12 UNK        -0.0989 
     18 CA         27.3768   26.7872    4.8696 C.3       5 UNK         0.0716 
     19 N          26.5671   26.8199    3.6455 N.am      5 UNK        -0.4135 
     20 C          27.0294   26.9563    2.3981 C.2       4 UNK         0.5031 
     21 O          28.2232   27.0350    2.1066 O.2       4 UNK        -0.5229 
     22 CA         25.9560   27.1344    1.3185 C.3       4 UNK         0.0329 
     23 CB         25.2699   28.5109    1.4838 C.3       4 UNK        -0.2001 
     24 N          26.5471   27.0299   -0.0154 N.am      4 UNK        -0.4303 
     25 C          25.8436   26.9312   -1.1513 C.2       3 UNK         0.5044 
     26 O          24.6192   26.7959   -1.1837 O.2       3 UNK        -0.5152 
     27 CA         26.6019   27.0423   -2.4854 C.3       3 UNK         0.0319 
     28 CB         26.5820   28.4971   -2.9837 C.3       3 UNK        -0.2001 
     29 N          27.9873   26.5743   -2.4470 N.am      3 UNK        -0.4354 
     30 C          28.3570   25.2899   -2.3682 C.2       2 UNK         0.4964 
     31 O          27.5615   24.3563   -2.2425 O.2       2 UNK        -0.5047 
     32 CA         29.8620   24.9822   -2.5091 C.3       2 UNK         0.0288 
     33 CB         30.7796   26.2267   -2.4347 C.3       2 UNK        -0.2113 
     34 N          30.3020   23.9523   -1.5628 N.am      2 UNK        -0.4145 
     35 C          30.2635   24.0240   -0.2234 C.2       1 UNK         0.5006 
     36 O          29.8501   25.0091    0.3872 O.2       1 UNK        -0.5103 
     37 C          27.8257   28.1956    5.3396 C.2       5 UNK         0.5055 
     38 O          28.3132   28.3251    6.4641 O.2       5 UNK        -0.5220 
     39 N          27.6264   29.2332    4.5142 N.am      6 UNK        -0.4450 
     40 CA         27.9979   30.6182    4.7963 C.3       6 UNK         0.0367 
     41 CB         27.2776   31.5432    3.8004 C.3       6 UNK        -0.1929 
     42 C          29.5216   30.7985    4.7175 C.2       6 UNK         0.5070 
     43 O          30.0844   30.6958    3.6262 O.2       6 UNK        -0.5237 
     44 N          30.1562   31.0650    5.8666 N.am      7 UNK        -0.4739 
     45 CA         31.6026   31.2637    6.0022 C.3       7 UNK         0.0276 
     46 CB         31.9461   31.5028    7.4807 C.3       7 UNK        -0.1927 
     47 C          32.1201   32.4208    5.1320 C.2       7 UNK         0.5013 
     48 O          31.4736   33.4695    5.0688 O.2       7 UNK        -0.5193 
     49 N          33.2576   32.1936    4.4606 N.am      8 UNK        -0.4253 
     50 CA         33.9482   33.0655    3.4961 C.3       8 UNK         0.0242 
     51 CB         34.3735   34.4015    4.1373 C.3       8 UNK        -0.2000 
     52 C          33.1885   33.2999    2.1747 C.2       8 UNK         0.4948 
     53 O          33.8272   33.3381    1.1224 O.2       8 UNK        -0.5275 
     54 N          31.8590   33.4472    2.2375 N.am      9 UNK        -0.4246 
     55 CA         30.9669   33.5901    1.0855 C.3       9 UNK         0.0261 
     56 CB         29.5814   34.0478    1.5683 C.3       9 UNK        -0.1959 
     57 C          30.8546   32.2979    0.2585 C.2       9 UNK         0.5033 
     58 O          30.8317   32.3698   -0.9714 O.2       9 UNK        -0.5390 
     59 N          30.7944   31.1515    0.9437 N.am      10 UNK        -0.4215 
     60 CA         30.7525   29.8130    0.3692 C.3       10 UNK         0.0240 
     61 CB         29.2899   29.3423    0.2761 C.3       10 UNK        -0.1982 
     62 C          31.6984   28.9088    1.1794 C.2       10 UNK         0.4970 
     63 O          32.8677   29.2763    1.3165 O.2       10 UNK        -0.4916 
     64 N          31.2167   27.7557    1.6692 N.am      11 UNK        -0.4279 
     65 CA         32.0144   26.6711    2.2763 C.3       11 UNK         0.1003 
     66 C          32.9890   25.9808    1.2697 C.2       11 UNK         0.5709 
     67 N          33.7229   24.9636    1.7039 N.am      11 UNK        -0.7358 
     68 O          33.0752   26.3210    0.0917 O.2       11 UNK        -0.4999 
     69 C69        32.7257   27.0847    3.6005 C.3       12 UNK        -0.0954 
     70 S70        31.5588   27.5256    4.9286 S.3       12 UNK        -0.2268 
     71 C71        31.8569   26.2120    6.1549 C.3       12 UNK         0.0203 
     72 H72        33.4650   19.7195   -1.2200 H         1 UNK         0.0888 
     73 H73        31.7607   19.6256   -1.6662 H         1 UNK         0.0888 
     74 H74        32.8860   20.5413   -2.6716 H         1 UNK         0.0888 
     75 H75        30.4825   20.9451   -0.3837 H         1 UNK         0.3017 
     76 H76        31.6414   23.1523    1.1236 H         1 UNK         0.0873 
     77 H77        29.4824   23.2184    2.3120 H         1 UNK         0.0745 
     78 H78        28.7736   22.1142    1.1667 H         1 UNK         0.0745 
     79 H79        32.2656   22.1361    3.2403 H         1 UNK         0.0705 
     80 H80        31.8512   20.9534    4.4543 H         1 UNK         0.0705 
     81 H81        32.5633   24.0837    4.5880 H         1 UNK         0.1334 
     82 H82        29.3911   25.5514    7.0574 H         1 UNK         0.1417 
     83 H83        28.9746   21.7799    5.0642 H         1 UNK         0.1562 
     84 H84        27.5836   23.9017    7.7040 H         1 UNK         0.0748 
     85 H85        27.3922   22.4281    6.7956 H         1 UNK         0.0748 
     86 H86        27.1555   26.1177    6.9577 H         1 UNK         0.0940 
     87 H87        25.6534   26.4959    6.1825 H         1 UNK         0.0940 
     88 H88        28.2961   26.2441    4.6430 H         1 UNK         0.0703 
     89 H89        25.5686   26.7683    3.7856 H         1 UNK         0.3081 
     90 H90        25.2200   26.3366    1.4389 H         1 UNK         0.0719 
     91 H91        25.9739   29.3300    1.3303 H         1 UNK         0.0809 
     92 H92        24.4527   28.6425    0.7749 H         1 UNK         0.0809 
     93 H93        24.8383   28.6323    2.4779 H         1 UNK         0.0809 
     94 H94        27.5590   27.0519   -0.0362 H         1 UNK         0.2990 
     95 H95        26.0638   26.4314   -3.2137 H         1 UNK         0.0690 
     96 H96        27.0269   28.5847   -3.9751 H         1 UNK         0.0788 
     97 H97        27.1240   29.1627   -2.3106 H         1 UNK         0.0788 
     98 H98        25.5596   28.8711   -3.0564 H         1 UNK         0.0788 
     99 H99        28.7079   27.2729   -2.5548 H         1 UNK         0.2993 
    100 H100       29.9817   24.5485   -3.5031 H         1 UNK         0.0949 
    101 H101       30.6733   26.7614   -1.4901 H         1 UNK         0.0767 
    102 H102       31.8279   25.9415   -2.5268 H         1 UNK         0.0767 
    103 H103       30.5733   26.9277   -3.2443 H         1 UNK         0.0767 
    104 H104       30.6288   23.0890   -1.9716 H         1 UNK         0.3013 
    105 H105       27.2858   29.0386    3.5860 H         1 UNK         0.3121 
    106 H106       27.6565   30.8717    5.8023 H         1 UNK         0.0774 
    107 H107       27.5173   32.5881    4.0006 H         1 UNK         0.0815 
    108 H108       27.5647   31.3331    2.7690 H         1 UNK         0.0815 
    109 H109       26.1949   31.4408    3.8744 H         1 UNK         0.0815 
    110 H110       29.6124   31.1276    6.7147 H         1 UNK         0.2987 
    111 H111       32.0877   30.3409    5.6794 H         1 UNK         0.0949 
    112 H112       31.4600   32.3998    7.8670 H         1 UNK         0.0806 
    113 H113       31.6409   30.6597    8.1009 H         1 UNK         0.0806 
    114 H114       33.0209   31.6307    7.6166 H         1 UNK         0.0806 
    115 H115       33.6804   31.2817    4.5690 H         1 UNK         0.3010 
    116 H116       34.8616   32.5307    3.2298 H         1 UNK         0.0829 
    117 H117       34.9673   34.2389    5.0367 H         1 UNK         0.0813 
    118 H118       34.9841   34.9849    3.4469 H         1 UNK         0.0813 
    119 H119       33.5163   35.0186    4.4077 H         1 UNK         0.0813 
    120 H120       31.4355   33.4390    3.1616 H         1 UNK         0.3038 
    121 H121       31.3763   34.3667    0.4359 H         1 UNK         0.0769 
    122 H122       28.8942   34.1661    0.7294 H         1 UNK         0.0811 
    123 H123       29.6371   35.0085    2.0805 H         1 UNK         0.0811 
    124 H124       29.1384   33.3269    2.2555 H         1 UNK         0.0811 
    125 H125       30.7832   31.1737    1.9630 H         1 UNK         0.3204 
    126 H126       31.1637   29.8344   -0.6421 H         1 UNK         0.0748 
    127 H127       28.7180   29.9798   -0.3981 H         1 UNK         0.0771 
    128 H128       29.2211   28.3255   -0.1098 H         1 UNK         0.0771 
    129 H129       28.8018   29.3788    1.2500 H         1 UNK         0.0771 
    130 H130       30.2346   27.5340    1.5454 H         1 UNK         0.2980 
    131 H131       31.2831   25.9011    2.5252 H         1 UNK         0.0545 
    132 H132       34.3264   24.4942    1.0463 H         1 UNK         0.3459 
    133 H133       33.6967   24.6619    2.6625 H         1 UNK         0.3459 
    134 H134       33.3685   26.2850    3.9667 H         1 UNK         0.0616 
    135 H135       33.3922   27.9318    3.4389 H         1 UNK         0.0616 
    136 H136       32.9219   25.9853    6.2198 H         1 UNK         0.0634 
    137 H137       31.5739   26.5938    7.1370 H         1 UNK         0.0634 
@<TRIPOS>BOND
     1    1    2 1    
     2    1   72 1    
     3    1   73 1    
     4    1   74 1    
     5    2    3 2    
     6    2    4 am   BACKBONE|DICT|INTERRES
     7    4    5 1    
     8    4   75 1    
     9    5    6 1    
    10    5   35 1    
    11    5   76 1    
    12    6    7 1    
    13    6   77 1    
    14    6   78 1    
    15    7    8 1    
    16    8    9 1    
    17    8   79 1    
    18    8   80 1    
    19    9   10 ar   
    20    9   14 ar   
    21   10   11 ar   
    22   10   81 1    
    23   11   12 ar   
    24   11   71 1    
    25   12   13 ar   
    26   12   82 1    
    27   13   14 ar   
    28   13   15 1    
    29   14   83 1    
    30   15   16 1    
    31   15   84 1    
    32   15   85 1    
    33   16   17 1    
    34   17   18 1    
    35   17   86 1    
    36   17   87 1    
    37   18   19 1    
    38   18   37 1    
    39   18   88 1    
    40   19   20 am   BACKBONE|DICT|INTERRES
    41   19   89 1    
    42   20   21 2    
    43   20   22 1    
    44   22   23 1    
    45   22   24 1    
    46   22   90 1    
    47   23   91 1    
    48   23   92 1    
    49   23   93 1    
    50   24   25 am   BACKBONE|DICT|INTERRES
    51   24   94 1    
    52   25   26 2    
    53   25   27 1    
    54   27   28 1    
    55   27   29 1    
    56   27   95 1    
    57   28   96 1    
    58   28   97 1    
    59   28   98 1    
    60   29   30 am   BACKBONE|DICT|INTERRES
    61   29   99 1    
    62   30   31 2    
    63   30   32 1    
    64   32   33 1    
    65   32   34 1    
    66   32  100 1    
    67   33  101 1    
    68   33  102 1    
    69   33  103 1    
    70   34   35 am   BACKBONE|DICT|INTERRES
    71   34  104 1    
    72   35   36 2    
    73   37   38 2    
    74   37   39 am   BACKBONE|DICT|INTERRES
    75   39   40 1    
    76   39  105 1    
    77   40   41 1    
    78   40   42 1    
    79   40  106 1    
    80   41  107 1    
    81   41  108 1    
    82   41  109 1    
    83   42   43 2    
    84   42   44 am   BACKBONE|DICT|INTERRES
    85   44   45 1    
    86   44  110 1    
    87   45   46 1    
    88   45   47 1    
    89   45  111 1    
    90   46  112 1    
    91   46  113 1    
    92   46  114 1    
    93   47   48 2    
    94   47   49 am   BACKBONE|DICT|INTERRES
    95   49   50 1    
    96   49  115 1    
    97   50   51 1    
    98   50   52 1    
    99   50  116 1    
   100   51  117 1    
   101   51  118 1    
   102   51  119 1    
   103   52   53 2    
   104   52   54 am   BACKBONE|DICT|INTERRES
   105   54   55 1    
   106   54  120 1    
   107   55   56 1    
   108   55   57 1    
   109   55  121 1    
   110   56  122 1    
   111   56  123 1    
   112   56  124 1    
   113   57   58 2    
   114   57   59 am   BACKBONE|DICT|INTERRES
   115   59   60 1    
   116   59  125 1    
   117   60   61 1    
   118   60   62 1    
   119   60  126 1    
   120   61  127 1    
   121   61  128 1    
   122   61  129 1    
   123   62   63 2    
   124   62   64 am   BACKBONE|DICT|INTERRES
   125   64   65 1    
   126   64  130 1    
   127   65   66 1    
   128   65   69 1    
   129   65  131 1    
   130   66   67 am   BACKBONE|DICT|INTERRES
   131   66   68 2    
   132   67  132 1    
   133   67  133 1    
   134   69   70 1    
   135   69  134 1    
   136   69  135 1    
   137   70   71 1    
   138   71  136 1    
   139   71  137 1    
@<TRIPOS>SUBSTRUCTURE
     1 UNK         1 GROUP             0       ****    0 ROOT    
