@<TRIPOS>MOLECULE
3R136
137   139    1
SMALL
USER_CHARGES


@<TRIPOS>ATOM
      1 CA         29.9243   16.7939    0.0354 C.3       0 UNK        -0.1979 
      2 C          29.2737   18.1665   -0.0576 C.2       0 UNK         0.4864 
      3 O          28.2289   18.3057   -0.6958 O.2       0 UNK        -0.5359 
      4 N          29.8869   19.1811    0.5661 N.am      1 UNK        -0.4318 
      5 CA         29.3696   20.5501    0.6402 C.3       1 UNK         0.0824 
      6 C6         30.4877   21.5409    1.0510 C.3       12 UNK        -0.0944 
      7 S7         30.0375   23.2820    0.7536 S.3       12 UNK        -0.2672 
      8 C8         31.5227   24.1151    1.3843 C.3       12 UNK         0.0333 
      9 C9         31.3068   25.6171    1.4592 C.ar      12 UNK        -0.0807 
     10 C10        30.6059   26.1620    2.5372 C.ar      12 UNK        -0.0894 
     11 C11        30.3894   27.5390    2.6209 C.ar      12 UNK        -0.0804 
     12 C12        30.9174   28.3769    1.6355 C.ar      12 UNK        -0.0824 
     13 C13        31.6278   27.8461    0.5517 C.ar      12 UNK        -0.0762 
     14 C14        31.8086   26.4618    0.4644 C.ar      12 UNK        -0.0782 
     15 C15        32.2446   28.7600   -0.5019 C.3       12 UNK         0.0230 
     16 S16        31.1246   29.0985   -1.8987 S.3       12 UNK        -0.2608 
     17 C17        29.8907   30.2072   -1.1298 C.3       12 UNK        -0.0989 
     18 CA         28.4277   29.6863   -1.2048 C.3       5 UNK         0.0716 
     19 N          28.3156   28.2415   -0.9650 N.am      5 UNK        -0.4135 
     20 C          27.5600   27.4131   -1.6966 C.2       4 UNK         0.5031 
     21 O          26.8544   27.7744   -2.6396 O.2       4 UNK        -0.5229 
     22 CA         27.5738   25.9252   -1.3057 C.3       4 UNK         0.0329 
     23 CB         28.7332   25.2040   -2.0120 C.3       4 UNK        -0.2001 
     24 N          27.6318   25.6486    0.1356 N.am      4 UNK        -0.4303 
     25 C          26.7949   26.1346    1.0649 C.2       3 UNK         0.5044 
     26 O          25.9470   26.9997    0.8408 O.2       3 UNK        -0.5152 
     27 CA         26.9260   25.5268    2.4740 C.3       3 UNK         0.0319 
     28 CB         25.9433   26.1415    3.4933 C.3       3 UNK        -0.2001 
     29 N          26.8293   24.0603    2.4591 N.am      3 UNK        -0.4354 
     30 C          25.7930   23.3171    2.0374 C.2       2 UNK         0.4964 
     31 O          24.7323   23.7797    1.6152 O.2       2 UNK        -0.5047 
     32 CA         26.0127   21.7968    2.0588 C.3       2 UNK         0.0288 
     33 CB         24.8058   20.9947    1.5327 C.3       2 UNK        -0.2113 
     34 N          27.1938   21.4849    1.2569 N.am      2 UNK        -0.4145 
     35 C          28.1606   20.6262    1.5984 C.2       1 UNK         0.5006 
     36 O          28.1479   19.9469    2.6292 O.2       1 UNK        -0.5103 
     37 C          27.5088   30.4985   -0.2637 C.2       5 UNK         0.5055 
     38 O          27.6349   31.7231   -0.2279 O.2       5 UNK        -0.5220 
     39 N          26.6400   29.8264    0.5105 N.am      6 UNK        -0.4450 
     40 CA         25.7810   30.3357    1.5895 C.3       6 UNK         0.0367 
     41 CB         24.8202   31.4429    1.1113 C.3       6 UNK        -0.1929 
     42 C          26.5698   30.7593    2.8408 C.2       6 UNK         0.5070 
     43 O          26.2988   30.2413    3.9239 O.2       6 UNK        -0.5237 
     44 N          27.5445   31.6580    2.6746 N.am      7 UNK        -0.4739 
     45 CA         28.4743   32.1089    3.7058 C.3       7 UNK         0.0276 
     46 CB         27.8224   33.1957    4.5794 C.3       7 UNK        -0.1927 
     47 C          29.7376   32.6367    3.0188 C.2       7 UNK         0.5013 
     48 O          29.6246   33.3619    2.0280 O.2       7 UNK        -0.5193 
     49 N          30.9088   32.2839    3.5566 N.am      8 UNK        -0.4253 
     50 CA         32.2294   32.6867    3.0777 C.3       8 UNK         0.0242 
     51 CB         32.5614   31.9709    1.7524 C.3       8 UNK        -0.2000 
     52 C          33.2645   32.3138    4.1441 C.2       8 UNK         0.4948 
     53 O          32.9479   31.5635    5.0712 O.2       8 UNK        -0.5275 
     54 N          34.5121   32.7644    3.9531 N.am      9 UNK        -0.4246 
     55 CA         35.6730   32.4103    4.7849 C.3       9 UNK         0.0261 
     56 CB         36.8938   33.2200    4.3178 C.3       9 UNK        -0.1959 
     57 C          36.0035   30.9019    4.8103 C.2       9 UNK         0.5033 
     58 O          36.6837   30.4485    5.7312 O.2       9 UNK        -0.5390 
     59 N          35.4972   30.1533    3.8199 N.am      10 UNK        -0.4215 
     60 CA         35.5367   28.6925    3.7403 C.3       10 UNK         0.0240 
     61 CB         35.0526   28.2603    2.3452 C.3       10 UNK        -0.1982 
     62 C          34.7076   27.9801    4.8280 C.2       10 UNK         0.4970 
     63 O          34.9866   26.8122    5.1031 O.2       10 UNK        -0.4916 
     64 N          33.7158   28.6667    5.4117 N.am      11 UNK        -0.4279 
     65 CA         32.8070   28.1249    6.4335 C.3       11 UNK         0.1003 
     66 C          32.6314   29.0399    7.6769 C.2       11 UNK         0.5709 
     67 N          32.8848   30.3402    7.5971 N.am      11 UNK        -0.7358 
     68 O          32.2831   28.5511    8.7494 O.2       11 UNK        -0.4999 
     69 C69        31.4486   27.6896    5.8232 C.3       12 UNK        -0.0954 
     70 S70        30.5753   29.0396    4.9560 S.3       12 UNK        -0.2268 
     71 C71        29.5639   28.1204    3.7602 C.3       12 UNK         0.0203 
     72 H72        30.8464   16.8180    0.6160 H         1 UNK         0.0888 
     73 H73        29.2434   16.0879    0.5100 H         1 UNK         0.0888 
     74 H74        30.1612   16.4225   -0.9612 H         1 UNK         0.0888 
     75 H75        30.7239   18.9990    1.1011 H         1 UNK         0.3017 
     76 H76        29.0304   20.8182   -0.3633 H         1 UNK         0.0873 
     77 H77        30.7613   21.4099    2.1001 H         1 UNK         0.0745 
     78 H78        31.3916   21.3389    0.4733 H         1 UNK         0.0745 
     79 H79        32.3723   23.8775    0.7422 H         1 UNK         0.0705 
     80 H80        31.7659   23.7315    2.3765 H         1 UNK         0.0705 
     81 H81        30.2203   25.5071    3.3065 H         1 UNK         0.1334 
     82 H82        30.7776   29.4430    1.7327 H         1 UNK         0.1417 
     83 H83        32.3553   26.0433   -0.3698 H         1 UNK         0.1562 
     84 H84        33.1536   28.3014   -0.8943 H         1 UNK         0.0748 
     85 H85        32.5618   29.7021   -0.0577 H         1 UNK         0.0748 
     86 H86        29.9567   31.1703   -1.6397 H         1 UNK         0.0940 
     87 H87        30.1802   30.4224   -0.1032 H         1 UNK         0.0940 
     88 H88        28.0779   29.9030   -2.2162 H         1 UNK         0.0703 
     89 H89        28.8892   27.8570   -0.2279 H         1 UNK         0.3081 
     90 H90        26.6386   25.4941   -1.6685 H         1 UNK         0.0719 
     91 H91        29.7024   25.5317   -1.6332 H         1 UNK         0.0809 
     92 H92        28.6685   24.1238   -1.8823 H         1 UNK         0.0809 
     93 H93        28.7209   25.3982   -3.0855 H         1 UNK         0.0809 
     94 H94        28.3161   24.9618    0.4251 H         1 UNK         0.2990 
     95 H95        27.9300   25.7619    2.8171 H         1 UNK         0.0690 
     96 H96        26.0898   25.7216    4.4883 H         1 UNK         0.0788 
     97 H97        24.9038   25.9756    3.2084 H         1 UNK         0.0788 
     98 H98        26.0890   27.2199    3.5726 H         1 UNK         0.0788 
     99 H99        27.6591   23.5682    2.7612 H         1 UNK         0.2993 
    100 H100       26.1791   21.5204    3.1026 H         1 UNK         0.0949 
    101 H101       24.9883   19.9216    1.5950 H         1 UNK         0.0767 
    102 H102       23.9102   21.2055    2.1186 H         1 UNK         0.0767 
    103 H103       24.5833   21.2361    0.4926 H         1 UNK         0.0767 
    104 H104       27.3022   22.0250    0.4092 H         1 UNK         0.3013 
    105 H105       26.5939   28.8166    0.4027 H         1 UNK         0.3121 
    106 H106       25.1634   29.4861    1.8863 H         1 UNK         0.0774 
    107 H107       24.1143   31.7060    1.9000 H         1 UNK         0.0815 
    108 H108       25.3449   32.3572    0.8344 H         1 UNK         0.0815 
    109 H109       24.2373   31.1161    0.2503 H         1 UNK         0.0815 
    110 H110       27.7256   32.0119    1.7369 H         1 UNK         0.2987 
    111 H111       28.7411   31.2594    4.3369 H         1 UNK         0.0949 
    112 H112       27.5141   34.0568    3.9851 H         1 UNK         0.0806 
    113 H113       26.9430   32.8151    5.0990 H         1 UNK         0.0806 
    114 H114       28.5176   33.5537    5.3399 H         1 UNK         0.0806 
    115 H115       30.9416   31.7054    4.3894 H         1 UNK         0.3010 
    116 H116       32.2413   33.7694    2.9366 H         1 UNK         0.0829 
    117 H117       31.8045   32.1501    0.9891 H         1 UNK         0.0813 
    118 H118       33.5100   32.3163    1.3400 H         1 UNK         0.0813 
    119 H119       32.6428   30.8948    1.9014 H         1 UNK         0.0813 
    120 H120       34.6927   33.3733    3.1671 H         1 UNK         0.3038 
    121 H121       35.4409   32.7018    5.8115 H         1 UNK         0.0769 
    122 H122       37.1613   32.9891    3.2859 H         1 UNK         0.0811 
    123 H123       37.7662   33.0033    4.9363 H         1 UNK         0.0811 
    124 H124       36.7104   34.2924    4.3871 H         1 UNK         0.0811 
    125 H125       34.9757   30.6281    3.0993 H         1 UNK         0.3204 
    126 H126       36.5755   28.3779    3.8606 H         1 UNK         0.0748 
    127 H127       35.1010   27.1761    2.2323 H         1 UNK         0.0771 
    128 H128       34.0176   28.5561    2.1701 H         1 UNK         0.0771 
    129 H129       35.6667   28.6940    1.5558 H         1 UNK         0.0771 
    130 H130       33.5433   29.6290    5.1452 H         1 UNK         0.2980 
    131 H131       33.2603   27.2210    6.8444 H         1 UNK         0.0545 
    132 H132       33.0492   30.7862    6.6987 H         1 UNK         0.3459 
    133 H133       32.7778   30.9078    8.4218 H         1 UNK         0.3459 
    134 H134       30.7888   27.2820    6.5911 H         1 UNK         0.0616 
    135 H135       31.6249   26.8748    5.1207 H         1 UNK         0.0616 
    136 H136       28.8134   28.7936    3.3453 H         1 UNK         0.0634 
    137 H137       29.0140   27.3406    4.2886 H         1 UNK         0.0634 
@<TRIPOS>BOND
     1    1    2 1    
     2    1   72 1    
     3    1   73 1    
     4    1   74 1    
     5    2    3 2    
     6    2    4 am   BACKBONE|DICT|INTERRES
     7    4    5 1    
     8    4   75 1    
     9    5    6 1    
    10    5   35 1    
    11    5   76 1    
    12    6    7 1    
    13    6   77 1    
    14    6   78 1    
    15    7    8 1    
    16    8    9 1    
    17    8   79 1    
    18    8   80 1    
    19    9   10 ar   
    20    9   14 ar   
    21   10   11 ar   
    22   10   81 1    
    23   11   12 ar   
    24   11   71 1    
    25   12   13 ar   
    26   12   82 1    
    27   13   14 ar   
    28   13   15 1    
    29   14   83 1    
    30   15   16 1    
    31   15   84 1    
    32   15   85 1    
    33   16   17 1    
    34   17   18 1    
    35   17   86 1    
    36   17   87 1    
    37   18   19 1    
    38   18   37 1    
    39   18   88 1    
    40   19   20 am   BACKBONE|DICT|INTERRES
    41   19   89 1    
    42   20   21 2    
    43   20   22 1    
    44   22   23 1    
    45   22   24 1    
    46   22   90 1    
    47   23   91 1    
    48   23   92 1    
    49   23   93 1    
    50   24   25 am   BACKBONE|DICT|INTERRES
    51   24   94 1    
    52   25   26 2    
    53   25   27 1    
    54   27   28 1    
    55   27   29 1    
    56   27   95 1    
    57   28   96 1    
    58   28   97 1    
    59   28   98 1    
    60   29   30 am   BACKBONE|DICT|INTERRES
    61   29   99 1    
    62   30   31 2    
    63   30   32 1    
    64   32   33 1    
    65   32   34 1    
    66   32  100 1    
    67   33  101 1    
    68   33  102 1    
    69   33  103 1    
    70   34   35 am   BACKBONE|DICT|INTERRES
    71   34  104 1    
    72   35   36 2    
    73   37   38 2    
    74   37   39 am   BACKBONE|DICT|INTERRES
    75   39   40 1    
    76   39  105 1    
    77   40   41 1    
    78   40   42 1    
    79   40  106 1    
    80   41  107 1    
    81   41  108 1    
    82   41  109 1    
    83   42   43 2    
    84   42   44 am   BACKBONE|DICT|INTERRES
    85   44   45 1    
    86   44  110 1    
    87   45   46 1    
    88   45   47 1    
    89   45  111 1    
    90   46  112 1    
    91   46  113 1    
    92   46  114 1    
    93   47   48 2    
    94   47   49 am   BACKBONE|DICT|INTERRES
    95   49   50 1    
    96   49  115 1    
    97   50   51 1    
    98   50   52 1    
    99   50  116 1    
   100   51  117 1    
   101   51  118 1    
   102   51  119 1    
   103   52   53 2    
   104   52   54 am   BACKBONE|DICT|INTERRES
   105   54   55 1    
   106   54  120 1    
   107   55   56 1    
   108   55   57 1    
   109   55  121 1    
   110   56  122 1    
   111   56  123 1    
   112   56  124 1    
   113   57   58 2    
   114   57   59 am   BACKBONE|DICT|INTERRES
   115   59   60 1    
   116   59  125 1    
   117   60   61 1    
   118   60   62 1    
   119   60  126 1    
   120   61  127 1    
   121   61  128 1    
   122   61  129 1    
   123   62   63 2    
   124   62   64 am   BACKBONE|DICT|INTERRES
   125   64   65 1    
   126   64  130 1    
   127   65   66 1    
   128   65   69 1    
   129   65  131 1    
   130   66   67 am   BACKBONE|DICT|INTERRES
   131   66   68 2    
   132   67  132 1    
   133   67  133 1    
   134   69   70 1    
   135   69  134 1    
   136   69  135 1    
   137   70   71 1    
   138   71  136 1    
   139   71  137 1    
@<TRIPOS>SUBSTRUCTURE
     1 UNK         1 GROUP             0       ****    0 ROOT    
