@<TRIPOS>MOLECULE
3R136
137   139    1
SMALL
USER_CHARGES


@<TRIPOS>ATOM
      1 CA         32.2890   27.3919    0.2737 C.3       0 UNK        -0.1979 
      2 C          31.1453   26.4852    0.7015 C.2       0 UNK         0.4864 
      3 O          29.9836   26.9034    0.6664 O.2       0 UNK        -0.5359 
      4 N          31.4618   25.2379    1.0791 N.am      1 UNK        -0.4318 
      5 CA         30.5152   24.1979    1.5008 C.3       1 UNK         0.0824 
      6 C6         31.2091   23.1356    2.3956 C.3       12 UNK        -0.0944 
      7 S7         30.0143   22.1827    3.3982 S.3       12 UNK        -0.2672 
      8 C8         30.2219   22.9104    5.0537 C.3       12 UNK         0.0333 
      9 C9         29.8584   24.3880    5.0838 C.ar      12 UNK        -0.0807 
     10 C10        30.8566   25.3508    5.2550 C.ar      12 UNK        -0.0894 
     11 C11        30.5336   26.7094    5.2937 C.ar      12 UNK        -0.0804 
     12 C12        29.1970   27.1010    5.1738 C.ar      12 UNK        -0.0824 
     13 C13        28.1873   26.1483    5.0010 C.ar      12 UNK        -0.0762 
     14 C14        28.5253   24.7919    4.9561 C.ar      12 UNK        -0.0782 
     15 C15        26.7292   26.5811    4.9055 C.3       12 UNK         0.0230 
     16 S16        26.4352   27.7749    3.5621 S.3       12 UNK        -0.2608 
     17 C17        26.6523   26.7299    2.0775 C.3       12 UNK        -0.0989 
     18 CA         25.9075   27.2596    0.8209 C.3       5 UNK         0.0716 
     19 N          24.4656   27.3460    1.0767 N.am      5 UNK        -0.4135 
     20 C          23.4251   27.3505    0.2273 C.2       4 UNK         0.5031 
     21 O          22.3031   27.6640    0.6236 O.2       4 UNK        -0.5229 
     22 CA         23.5636   26.9182   -1.2532 C.3       4 UNK         0.0329 
     23 CB         24.2620   27.9625   -2.1424 C.3       4 UNK        -0.2001 
     24 N          24.1439   25.5920   -1.4699 N.am      4 UNK        -0.4303 
     25 C          23.6490   24.4317   -1.0119 C.2       3 UNK         0.5044 
     26 O          22.6232   24.3383   -0.3373 O.2       3 UNK        -0.5152 
     27 CA         24.4133   23.1455   -1.3919 C.3       3 UNK         0.0319 
     28 CB         23.7009   22.4181   -2.5441 C.3       3 UNK        -0.2001 
     29 N          25.8132   23.3805   -1.7661 N.am      3 UNK        -0.4354 
     30 C          26.7585   23.7789   -0.9059 C.2       2 UNK         0.4964 
     31 O          26.5566   23.9204    0.3022 O.2       2 UNK        -0.5047 
     32 CA         28.1269   24.1371   -1.5121 C.3       2 UNK         0.0288 
     33 CB         28.0154   25.3482   -2.4582 C.3       2 UNK        -0.2113 
     34 N          29.0790   24.4706   -0.4572 N.am      2 UNK        -0.4145 
     35 C          29.7587   23.5964    0.2904 C.2       1 UNK         0.5006 
     36 O          29.8112   22.3896    0.0412 O.2       1 UNK        -0.5103 
     37 C          26.4652   28.6247    0.3557 C.2       5 UNK         0.5055 
     38 O          25.7576   29.6340    0.4216 O.2       5 UNK        -0.5220 
     39 N          27.7198   28.6403   -0.1191 N.am      6 UNK        -0.4450 
     40 CA         28.3891   29.8652   -0.5698 C.3       6 UNK         0.0367 
     41 CB         29.5308   29.5134   -1.5356 C.3       6 UNK        -0.1929 
     42 C          28.9017   30.7171    0.6046 C.2       6 UNK         0.5070 
     43 O          28.9741   31.9380    0.4647 O.2       6 UNK        -0.5237 
     44 N          29.2234   30.0629    1.7336 N.am      7 UNK        -0.4739 
     45 CA         29.6267   30.6541    3.0176 C.3       7 UNK         0.0276 
     46 CB         28.4306   31.3697    3.6794 C.3       7 UNK        -0.1927 
     47 C          30.8788   31.5485    2.9146 C.2       7 UNK         0.5013 
     48 O          30.9086   32.6512    3.4669 O.2       7 UNK        -0.5193 
     49 N          31.8994   31.0495    2.2054 N.am      8 UNK        -0.4253 
     50 CA         33.2009   31.6868    1.9907 C.3       8 UNK         0.0242 
     51 CB         33.8846   31.0135    0.7855 C.3       8 UNK        -0.2000 
     52 C          34.0832   31.6611    3.2565 C.2       8 UNK         0.4948 
     53 O          35.1424   31.0283    3.2592 O.2       8 UNK        -0.5275 
     54 N          33.6208   32.3441    4.3131 N.am      9 UNK        -0.4246 
     55 CA         34.2336   32.4674    5.6394 C.3       9 UNK         0.0261 
     56 CB         35.5160   33.3287    5.5700 C.3       9 UNK        -0.1959 
     57 C          34.4338   31.0883    6.2953 C.2       9 UNK         0.5033 
     58 O          33.4534   30.4882    6.7373 O.2       9 UNK        -0.5390 
     59 N          35.6843   30.6102    6.3383 N.am      10 UNK        -0.4215 
     60 CA         36.0575   29.2839    6.8341 C.3       10 UNK         0.0240 
     61 CB         37.5659   29.2678    7.1332 C.3       10 UNK        -0.1982 
     62 C          35.6881   28.1395    5.8709 C.2       10 UNK         0.4970 
     63 O          35.6151   26.9951    6.3197 O.2       10 UNK        -0.4916 
     64 N          35.4784   28.4545    4.5835 N.am      11 UNK        -0.4279 
     65 CA         35.0946   27.5226    3.5076 C.3       11 UNK         0.1003 
     66 C          36.1782   26.4682    3.1269 C.2       11 UNK         0.5709 
     67 N          37.4347   26.6380    3.5213 N.am      11 UNK        -0.7358 
     68 O          35.8877   25.4986    2.4299 O.2       11 UNK        -0.4999 
     69 C69        33.6906   26.8907    3.7273 C.3       12 UNK        -0.0954 
     70 S70        32.3899   28.1609    3.8693 S.3       12 UNK        -0.2268 
     71 C71        31.6245   27.7550    5.4654 C.3       12 UNK         0.0203 
     72 H72        32.1802   28.3711    0.7352 H         1 UNK         0.0888 
     73 H73        33.2597   26.9886    0.5608 H         1 UNK         0.0888 
     74 H74        32.2819   27.5196   -0.8081 H         1 UNK         0.0888 
     75 H75        32.4281   24.9473    1.0406 H         1 UNK         0.3017 
     76 H76        29.7603   24.6934    2.1165 H         1 UNK         0.0873 
     77 H77        31.8061   22.4441    1.7982 H         1 UNK         0.0745 
     78 H78        31.9148   23.6192    3.0727 H         1 UNK         0.0745 
     79 H79        29.5869   22.3707    5.7577 H         1 UNK         0.0705 
     80 H80        31.2488   22.7526    5.3876 H         1 UNK         0.0705 
     81 H81        31.8872   25.0421    5.3565 H         1 UNK         0.1334 
     82 H82        28.9375   28.1499    5.2136 H         1 UNK         0.1417 
     83 H83        27.7533   24.0451    4.8280 H         1 UNK         0.1562 
     84 H84        26.4421   27.0438    5.8505 H         1 UNK         0.0748 
     85 H85        26.0693   25.7222    4.7732 H         1 UNK         0.0748 
     86 H86        26.2926   25.7251    2.3049 H         1 UNK         0.0940 
     87 H87        27.7194   26.6129    1.8882 H         1 UNK         0.0940 
     88 H88        26.0791   26.5547    0.0107 H         1 UNK         0.0703 
     89 H89        24.2627   27.6273    2.0241 H         1 UNK         0.3081 
     90 H90        22.5389   26.8517   -1.6261 H         1 UNK         0.0719 
     91 H91        25.3474   27.8882   -2.1014 H         1 UNK         0.0809 
     92 H92        23.9712   27.8386   -3.1858 H         1 UNK         0.0809 
     93 H93        23.9869   28.9780   -1.8529 H         1 UNK         0.0809 
     94 H94        24.9750   25.5496   -2.0387 H         1 UNK         0.2990 
     95 H95        24.4013   22.4911   -0.5174 H         1 UNK         0.0690 
     96 H96        24.1828   21.4672   -2.7722 H         1 UNK         0.0788 
     97 H97        23.6890   23.0176   -3.4554 H         1 UNK         0.0788 
     98 H98        22.6638   22.1989   -2.2854 H         1 UNK         0.0788 
     99 H99        26.0474   23.2750   -2.7433 H         1 UNK         0.2993 
    100 H100       28.4950   23.2742   -2.0715 H         1 UNK         0.0949 
    101 H101       28.9919   25.6263   -2.8561 H         1 UNK         0.0767 
    102 H102       27.3765   25.1299   -3.3146 H         1 UNK         0.0767 
    103 H103       27.6033   26.2236   -1.9559 H         1 UNK         0.0767 
    104 H104       29.1379   25.4434   -0.1732 H         1 UNK         0.3013 
    105 H105       28.3016   27.8113   -0.0599 H         1 UNK         0.3121 
    106 H106       27.6681   30.4715   -1.1230 H         1 UNK         0.0774 
    107 H107       30.3178   28.9465   -1.0432 H         1 UNK         0.0815 
    108 H108       29.9888   30.4175   -1.9390 H         1 UNK         0.0815 
    109 H109       29.1712   28.9268   -2.3811 H         1 UNK         0.0815 
    110 H110       29.1560   29.0533    1.7181 H         1 UNK         0.2987 
    111 H111       29.9032   29.8219    3.6652 H         1 UNK         0.0949 
    112 H112       28.1162   32.2437    3.1081 H         1 UNK         0.0806 
    113 H113       27.5726   30.7040    3.7722 H         1 UNK         0.0806 
    114 H114       28.6852   31.7107    4.6836 H         1 UNK         0.0806 
    115 H115       31.7882   30.1221    1.8258 H         1 UNK         0.3010 
    116 H116       33.0317   32.7350    1.7351 H         1 UNK         0.0829 
    117 H117       34.0953   29.9606    0.9755 H         1 UNK         0.0813 
    118 H118       33.2671   31.0779   -0.1107 H         1 UNK         0.0813 
    119 H119       34.8352   31.4977    0.5577 H         1 UNK         0.0813 
    120 H120       32.6925   32.7483    4.2149 H         1 UNK         0.3038 
    121 H121       33.5148   32.9998    6.2642 H         1 UNK         0.0769 
    122 H122       35.9727   33.4359    6.5550 H         1 UNK         0.0811 
    123 H123       36.2664   32.9122    4.8973 H         1 UNK         0.0811 
    124 H124       35.2872   34.3341    5.2164 H         1 UNK         0.0811 
    125 H125       36.4186   31.1686    5.9274 H         1 UNK         0.3204 
    126 H126       35.5225   29.1054    7.7694 H         1 UNK         0.0748 
    127 H127       37.8749   28.3007    7.5327 H         1 UNK         0.0771 
    128 H128       38.1589   29.4548    6.2370 H         1 UNK         0.0771 
    129 H129       37.8312   30.0212    7.8753 H         1 UNK         0.0771 
    130 H130       35.5360   29.4274    4.2965 H         1 UNK         0.2980 
    131 H131       35.0204   28.1477    2.6172 H         1 UNK         0.0545 
    132 H132       38.1303   25.9576    3.2592 H         1 UNK         0.3459 
    133 H133       37.6906   27.4352    4.0805 H         1 UNK         0.3459 
    134 H134       33.4192   26.2419    2.8955 H         1 UNK         0.0616 
    135 H135       33.6982   26.2527    4.6104 H         1 UNK         0.0616 
    136 H136       31.2054   28.6690    5.8887 H         1 UNK         0.0634 
    137 H137       32.3816   27.4151    6.1738 H         1 UNK         0.0634 
@<TRIPOS>BOND
     1    1    2 1    
     2    1   72 1    
     3    1   73 1    
     4    1   74 1    
     5    2    3 2    
     6    2    4 am   BACKBONE|DICT|INTERRES
     7    4    5 1    
     8    4   75 1    
     9    5    6 1    
    10    5   35 1    
    11    5   76 1    
    12    6    7 1    
    13    6   77 1    
    14    6   78 1    
    15    7    8 1    
    16    8    9 1    
    17    8   79 1    
    18    8   80 1    
    19    9   10 ar   
    20    9   14 ar   
    21   10   11 ar   
    22   10   81 1    
    23   11   12 ar   
    24   11   71 1    
    25   12   13 ar   
    26   12   82 1    
    27   13   14 ar   
    28   13   15 1    
    29   14   83 1    
    30   15   16 1    
    31   15   84 1    
    32   15   85 1    
    33   16   17 1    
    34   17   18 1    
    35   17   86 1    
    36   17   87 1    
    37   18   19 1    
    38   18   37 1    
    39   18   88 1    
    40   19   20 am   BACKBONE|DICT|INTERRES
    41   19   89 1    
    42   20   21 2    
    43   20   22 1    
    44   22   23 1    
    45   22   24 1    
    46   22   90 1    
    47   23   91 1    
    48   23   92 1    
    49   23   93 1    
    50   24   25 am   BACKBONE|DICT|INTERRES
    51   24   94 1    
    52   25   26 2    
    53   25   27 1    
    54   27   28 1    
    55   27   29 1    
    56   27   95 1    
    57   28   96 1    
    58   28   97 1    
    59   28   98 1    
    60   29   30 am   BACKBONE|DICT|INTERRES
    61   29   99 1    
    62   30   31 2    
    63   30   32 1    
    64   32   33 1    
    65   32   34 1    
    66   32  100 1    
    67   33  101 1    
    68   33  102 1    
    69   33  103 1    
    70   34   35 am   BACKBONE|DICT|INTERRES
    71   34  104 1    
    72   35   36 2    
    73   37   38 2    
    74   37   39 am   BACKBONE|DICT|INTERRES
    75   39   40 1    
    76   39  105 1    
    77   40   41 1    
    78   40   42 1    
    79   40  106 1    
    80   41  107 1    
    81   41  108 1    
    82   41  109 1    
    83   42   43 2    
    84   42   44 am   BACKBONE|DICT|INTERRES
    85   44   45 1    
    86   44  110 1    
    87   45   46 1    
    88   45   47 1    
    89   45  111 1    
    90   46  112 1    
    91   46  113 1    
    92   46  114 1    
    93   47   48 2    
    94   47   49 am   BACKBONE|DICT|INTERRES
    95   49   50 1    
    96   49  115 1    
    97   50   51 1    
    98   50   52 1    
    99   50  116 1    
   100   51  117 1    
   101   51  118 1    
   102   51  119 1    
   103   52   53 2    
   104   52   54 am   BACKBONE|DICT|INTERRES
   105   54   55 1    
   106   54  120 1    
   107   55   56 1    
   108   55   57 1    
   109   55  121 1    
   110   56  122 1    
   111   56  123 1    
   112   56  124 1    
   113   57   58 2    
   114   57   59 am   BACKBONE|DICT|INTERRES
   115   59   60 1    
   116   59  125 1    
   117   60   61 1    
   118   60   62 1    
   119   60  126 1    
   120   61  127 1    
   121   61  128 1    
   122   61  129 1    
   123   62   63 2    
   124   62   64 am   BACKBONE|DICT|INTERRES
   125   64   65 1    
   126   64  130 1    
   127   65   66 1    
   128   65   69 1    
   129   65  131 1    
   130   66   67 am   BACKBONE|DICT|INTERRES
   131   66   68 2    
   132   67  132 1    
   133   67  133 1    
   134   69   70 1    
   135   69  134 1    
   136   69  135 1    
   137   70   71 1    
   138   71  136 1    
   139   71  137 1    
@<TRIPOS>SUBSTRUCTURE
     1 UNK         1 GROUP             0       ****    0 ROOT    
