@<TRIPOS>MOLECULE
3R136
137   139    1
SMALL
USER_CHARGES


@<TRIPOS>ATOM
      1 CA         25.0922   21.5731    2.7902 C.3       0 UNK        -0.1979 
      2 C          26.1097   22.3554    1.9750 C.2       0 UNK         0.4864 
      3 O          25.8048   23.4530    1.5086 O.2       0 UNK        -0.5359 
      4 N          27.3259   21.8145    1.8135 N.am      1 UNK        -0.4318 
      5 CA         28.4219   22.4060    1.0309 C.3       1 UNK         0.0824 
      6 C6         29.6362   21.4460    0.9540 C.3       12 UNK        -0.0944 
      7 S7         30.5551   21.6078   -0.6115 S.3       12 UNK        -0.2672 
      8 C8         32.2613   21.8392   -0.0218 C.3       12 UNK         0.0333 
      9 C9         32.4906   23.2348    0.5389 C.ar      12 UNK        -0.0807 
     10 C10        32.6470   23.4330    1.9144 C.ar      12 UNK        -0.0894 
     11 C11        32.8960   24.7124    2.4189 C.ar      12 UNK        -0.0804 
     12 C12        32.9961   25.7919    1.5372 C.ar      12 UNK        -0.0824 
     13 C13        32.8138   25.6146    0.1617 C.ar      12 UNK        -0.0762 
     14 C14        32.5691   24.3285   -0.3287 C.ar      12 UNK        -0.0782 
     15 C15        32.8943   26.7873   -0.8153 C.3       12 UNK         0.0230 
     16 S16        32.2010   28.3604   -0.1916 S.3       12 UNK        -0.2608 
     17 C17        30.4732   27.9048    0.1834 C.3       12 UNK        -0.0989 
     18 CA         29.5203   28.0341   -1.0319 C.3       5 UNK         0.0716 
     19 N          28.3386   27.1902   -0.8381 N.am      5 UNK        -0.4135 
     20 C          27.3518   26.9754   -1.7183 C.2       4 UNK         0.5031 
     21 O          27.3491   27.4132   -2.8703 O.2       4 UNK        -0.5229 
     22 CA         26.1685   26.1067   -1.2463 C.3       4 UNK         0.0329 
     23 CB         26.3003   24.6789   -1.8003 C.3       4 UNK        -0.2001 
     24 N          26.0272   26.0417    0.2123 N.am      4 UNK        -0.4303 
     25 C          25.6254   27.0536    0.9962 C.2       3 UNK         0.5044 
     26 O          25.2650   28.1497    0.5682 O.2       3 UNK        -0.5152 
     27 CA         25.6342   26.8072    2.5139 C.3       3 UNK         0.0319 
     28 CB         24.2983   26.2020    2.9757 C.3       3 UNK        -0.2001 
     29 N          26.7361   25.9261    2.9093 N.am      3 UNK        -0.4354 
     30 C          27.9632   26.3533    3.2434 C.2       2 UNK         0.4964 
     31 O          28.2645   27.5426    3.3374 O.2       2 UNK        -0.5047 
     32 CA         29.0403   25.2855    3.5265 C.3       2 UNK         0.0288 
     33 CB         29.1463   25.0176    5.0366 C.3       2 UNK        -0.2113 
     34 N          28.8152   24.0066    2.8484 N.am      2 UNK        -0.4145 
     35 C          28.8205   23.8169    1.5210 C.2       1 UNK         0.5006 
     36 O          29.0391   24.7114    0.7050 O.2       1 UNK        -0.5103 
     37 C          29.1585   29.5094   -1.3308 C.2       5 UNK         0.5055 
     38 O          28.0840   29.9823   -0.9519 O.2       5 UNK        -0.5220 
     39 N          30.0796   30.2131   -2.0049 N.am      6 UNK        -0.4450 
     40 CA         29.9437   31.6153   -2.4159 C.3       6 UNK         0.0367 
     41 CB         31.0819   31.9656   -3.3883 C.3       6 UNK        -0.1929 
     42 C          29.9104   32.6185   -1.2471 C.2       6 UNK         0.5070 
     43 O          29.3690   33.7122   -1.4135 O.2       6 UNK        -0.5237 
     44 N          30.4770   32.2359   -0.0978 N.am      7 UNK        -0.4739 
     45 CA         30.3884   32.9593    1.1685 C.3       7 UNK         0.0276 
     46 CB         31.8077   33.2223    1.6984 C.3       7 UNK        -0.1927 
     47 C          29.5944   32.0983    2.1579 C.2       7 UNK         0.5013 
     48 O          29.6711   30.8703    2.0876 O.2       7 UNK        -0.5193 
     49 N          28.8610   32.7486    3.0705 N.am      8 UNK        -0.4253 
     50 CA         28.0853   32.0862    4.1215 C.3       8 UNK         0.0242 
     51 CB         27.1823   33.1159    4.8203 C.3       8 UNK        -0.2000 
     52 C          29.0108   31.3960    5.1352 C.2       8 UNK         0.4948 
     53 O          29.9294   32.0406    5.6493 O.2       8 UNK        -0.5275 
     54 N          28.7647   30.1031    5.3852 N.am      9 UNK        -0.4246 
     55 CA         29.5294   29.1732    6.2283 C.3       9 UNK         0.0261 
     56 CB         29.5962   29.6341    7.6979 C.3       9 UNK        -0.1959 
     57 C          30.9260   28.8465    5.6716 C.2       9 UNK         0.5033 
     58 O          31.2453   27.6673    5.5274 O.2       9 UNK        -0.5390 
     59 N          31.7175   29.8836    5.3624 N.am      10 UNK        -0.4215 
     60 CA         33.0268   29.9030    4.6939 C.3       10 UNK         0.0240 
     61 CB         32.8946   29.4046    3.2438 C.3       10 UNK        -0.1982 
     62 C          34.1676   29.1711    5.4265 C.2       10 UNK         0.4970 
     63 O          35.2213   29.7692    5.6468 O.2       10 UNK        -0.4916 
     64 N          33.9471   27.9020    5.7781 N.am      11 UNK        -0.4279 
     65 CA         34.8940   27.0220    6.4783 C.3       11 UNK         0.1003 
     66 C          34.9830   27.2751    8.0118 C.2       11 UNK         0.5709 
     67 N          34.1307   28.1033    8.6051 N.am      11 UNK        -0.7358 
     68 O          35.8529   26.7164    8.6761 O.2       11 UNK        -0.4999 
     69 C69        34.6109   25.5265    6.1709 C.3       12 UNK        -0.0954 
     70 S70        34.7819   25.1226    4.3988 S.3       12 UNK        -0.2268 
     71 C71        33.0393   24.9405    3.9149 C.3       12 UNK         0.0203 
     72 H72        25.4990   20.6307    3.1561 H         1 UNK         0.0888 
     73 H73        24.7689   22.1610    3.6488 H         1 UNK         0.0888 
     74 H74        24.2170   21.3517    2.1801 H         1 UNK         0.0888 
     75 H75        27.5170   20.9115    2.2242 H         1 UNK         0.3017 
     76 H76        28.0205   22.5278    0.0230 H         1 UNK         0.0873 
     77 H77        29.3001   20.4085    0.9933 H         1 UNK         0.0745 
     78 H78        30.2998   21.5682    1.8120 H         1 UNK         0.0745 
     79 H79        32.4999   21.0736    0.7183 H         1 UNK         0.0705 
     80 H80        32.9441   21.6750   -0.8567 H         1 UNK         0.0705 
     81 H81        32.5807   22.5926    2.5917 H         1 UNK         0.1334 
     82 H82        33.2122   26.7748    1.9256 H         1 UNK         0.1417 
     83 H83        32.4386   24.1723   -1.3911 H         1 UNK         0.1562 
     84 H84        32.3829   26.5378   -1.7463 H         1 UNK         0.0748 
     85 H85        33.9414   26.9492   -1.0736 H         1 UNK         0.0748 
     86 H86        30.1209   28.5080    1.0225 H         1 UNK         0.0940 
     87 H87        30.4719   26.8813    0.5578 H         1 UNK         0.0940 
     88 H88        30.0246   27.6327   -1.9132 H         1 UNK         0.0703 
     89 H89        28.2782   26.7090    0.0491 H         1 UNK         0.3081 
     90 H90        25.2557   26.5481   -1.6517 H         1 UNK         0.0719 
     91 H91        27.2234   24.2046   -1.4670 H         1 UNK         0.0809 
     92 H92        25.4662   24.0501   -1.4878 H         1 UNK         0.0809 
     93 H93        26.3135   24.6841   -2.8910 H         1 UNK         0.0809 
     94 H94        26.2119   25.1423    0.6480 H         1 UNK         0.2990 
     95 H95        25.7473   27.7753    3.0070 H         1 UNK         0.0690 
     96 H96        23.4667   26.8625    2.7265 H         1 UNK         0.0788 
     97 H97        24.2827   26.0551    4.0558 H         1 UNK         0.0788 
     98 H98        24.1003   25.2393    2.5035 H         1 UNK         0.0788 
     99 H99        26.5710   24.9322    2.8056 H         1 UNK         0.2993 
    100 H100       29.9929   25.6900    3.1764 H         1 UNK         0.0949 
    101 H101       29.9986   24.3780    5.2663 H         1 UNK         0.0767 
    102 H102       29.2833   25.9440    5.5928 H         1 UNK         0.0767 
    103 H103       28.2475   24.5386    5.4268 H         1 UNK         0.0767 
    104 H104       28.6018   23.2157    3.4383 H         1 UNK         0.3013 
    105 H105       30.9490   29.7569   -2.2442 H         1 UNK         0.3121 
    106 H106       28.9962   31.7124   -2.9502 H         1 UNK         0.0774 
    107 H107       32.0605   31.8656   -2.9169 H         1 UNK         0.0815 
    108 H108       30.9931   32.9953   -3.7379 H         1 UNK         0.0815 
    109 H109       31.0644   31.3246   -4.2699 H         1 UNK         0.0815 
    110 H110       30.8184   31.2866   -0.0280 H         1 UNK         0.2987 
    111 H111       29.8735   33.9138    1.0383 H         1 UNK         0.0949 
    112 H112       32.3661   32.2968    1.8404 H         1 UNK         0.0806 
    113 H113       32.3743   33.8508    1.0112 H         1 UNK         0.0806 
    114 H114       31.7784   33.7368    2.6599 H         1 UNK         0.0806 
    115 H115       28.8825   33.7579    3.0918 H         1 UNK         0.3010 
    116 H116       27.4485   31.3354    3.6476 H         1 UNK         0.0829 
    117 H117       26.4937   33.5841    4.1166 H         1 UNK         0.0813 
    118 H118       26.5790   32.6416    5.5957 H         1 UNK         0.0813 
    119 H119       27.7640   33.9053    5.2986 H         1 UNK         0.0813 
    120 H120       28.0394   29.6565    4.8385 H         1 UNK         0.3038 
    121 H121       28.9624   28.2417    6.2100 H         1 UNK         0.0769 
    122 H122       28.5992   29.8017    8.1049 H         1 UNK         0.0811 
    123 H123       30.0759   28.8761    8.3184 H         1 UNK         0.0811 
    124 H124       30.1658   30.5558    7.8185 H         1 UNK         0.0811 
    125 H125       31.3091   30.8008    5.5378 H         1 UNK         0.3204 
    126 H126       33.3157   30.9543    4.6485 H         1 UNK         0.0748 
    127 H127       33.8593   29.3882    2.7350 H         1 UNK         0.0771 
    128 H128       32.4813   28.3982    3.2054 H         1 UNK         0.0771 
    129 H129       32.2317   30.0460    2.6647 H         1 UNK         0.0771 
    130 H130       33.0120   27.5327    5.6135 H         1 UNK         0.2980 
    131 H131       35.8904   27.2460    6.0927 H         1 UNK         0.0545 
    132 H132       34.2053   28.2612    9.5976 H         1 UNK         0.3459 
    133 H133       33.4178   28.5696    8.0689 H         1 UNK         0.3459 
    134 H134       33.6160   25.2452    6.5212 H         1 UNK         0.0616 
    135 H135       35.3126   24.8866    6.7090 H         1 UNK         0.0616 
    136 H136       32.4893   25.8386    4.1930 H         1 UNK         0.0634 
    137 H137       32.5918   24.1174    4.4740 H         1 UNK         0.0634 
@<TRIPOS>BOND
     1    1    2 1    
     2    1   72 1    
     3    1   73 1    
     4    1   74 1    
     5    2    3 2    
     6    2    4 am   BACKBONE|DICT|INTERRES
     7    4    5 1    
     8    4   75 1    
     9    5    6 1    
    10    5   35 1    
    11    5   76 1    
    12    6    7 1    
    13    6   77 1    
    14    6   78 1    
    15    7    8 1    
    16    8    9 1    
    17    8   79 1    
    18    8   80 1    
    19    9   10 ar   
    20    9   14 ar   
    21   10   11 ar   
    22   10   81 1    
    23   11   12 ar   
    24   11   71 1    
    25   12   13 ar   
    26   12   82 1    
    27   13   14 ar   
    28   13   15 1    
    29   14   83 1    
    30   15   16 1    
    31   15   84 1    
    32   15   85 1    
    33   16   17 1    
    34   17   18 1    
    35   17   86 1    
    36   17   87 1    
    37   18   19 1    
    38   18   37 1    
    39   18   88 1    
    40   19   20 am   BACKBONE|DICT|INTERRES
    41   19   89 1    
    42   20   21 2    
    43   20   22 1    
    44   22   23 1    
    45   22   24 1    
    46   22   90 1    
    47   23   91 1    
    48   23   92 1    
    49   23   93 1    
    50   24   25 am   BACKBONE|DICT|INTERRES
    51   24   94 1    
    52   25   26 2    
    53   25   27 1    
    54   27   28 1    
    55   27   29 1    
    56   27   95 1    
    57   28   96 1    
    58   28   97 1    
    59   28   98 1    
    60   29   30 am   BACKBONE|DICT|INTERRES
    61   29   99 1    
    62   30   31 2    
    63   30   32 1    
    64   32   33 1    
    65   32   34 1    
    66   32  100 1    
    67   33  101 1    
    68   33  102 1    
    69   33  103 1    
    70   34   35 am   BACKBONE|DICT|INTERRES
    71   34  104 1    
    72   35   36 2    
    73   37   38 2    
    74   37   39 am   BACKBONE|DICT|INTERRES
    75   39   40 1    
    76   39  105 1    
    77   40   41 1    
    78   40   42 1    
    79   40  106 1    
    80   41  107 1    
    81   41  108 1    
    82   41  109 1    
    83   42   43 2    
    84   42   44 am   BACKBONE|DICT|INTERRES
    85   44   45 1    
    86   44  110 1    
    87   45   46 1    
    88   45   47 1    
    89   45  111 1    
    90   46  112 1    
    91   46  113 1    
    92   46  114 1    
    93   47   48 2    
    94   47   49 am   BACKBONE|DICT|INTERRES
    95   49   50 1    
    96   49  115 1    
    97   50   51 1    
    98   50   52 1    
    99   50  116 1    
   100   51  117 1    
   101   51  118 1    
   102   51  119 1    
   103   52   53 2    
   104   52   54 am   BACKBONE|DICT|INTERRES
   105   54   55 1    
   106   54  120 1    
   107   55   56 1    
   108   55   57 1    
   109   55  121 1    
   110   56  122 1    
   111   56  123 1    
   112   56  124 1    
   113   57   58 2    
   114   57   59 am   BACKBONE|DICT|INTERRES
   115   59   60 1    
   116   59  125 1    
   117   60   61 1    
   118   60   62 1    
   119   60  126 1    
   120   61  127 1    
   121   61  128 1    
   122   61  129 1    
   123   62   63 2    
   124   62   64 am   BACKBONE|DICT|INTERRES
   125   64   65 1    
   126   64  130 1    
   127   65   66 1    
   128   65   69 1    
   129   65  131 1    
   130   66   67 am   BACKBONE|DICT|INTERRES
   131   66   68 2    
   132   67  132 1    
   133   67  133 1    
   134   69   70 1    
   135   69  134 1    
   136   69  135 1    
   137   70   71 1    
   138   71  136 1    
   139   71  137 1    
@<TRIPOS>SUBSTRUCTURE
     1 UNK         1 GROUP             0       ****    0 ROOT    
