@<TRIPOS>MOLECULE
3R136
137   139    1
SMALL
USER_CHARGES


@<TRIPOS>ATOM
      1 CA         30.1440   26.6346    2.3523 C.3       0 UNK        -0.1979 
      2 C          29.7589   25.3403    3.0506 C.2       0 UNK         0.4864 
      3 O          29.1453   25.3842    4.1162 O.2       0 UNK        -0.5359 
      4 N          30.0904   24.1887    2.4493 N.am      1 UNK        -0.4318 
      5 CA         29.7208   22.8515    2.9407 C.3       1 UNK         0.0824 
      6 C6         30.5110   21.7315    2.2232 C.3       12 UNK        -0.0944 
      7 S7         32.2938   21.8028    2.5907 S.3       12 UNK        -0.2672 
      8 C8         33.0077   22.0967    0.9426 C.3       12 UNK         0.0333 
      9 C9         32.8620   23.5443    0.4932 C.ar      12 UNK        -0.0807 
     10 C10        33.5347   24.5553    1.1849 C.ar      12 UNK        -0.0894 
     11 C11        33.4803   25.8841    0.7455 C.ar      12 UNK        -0.0804 
     12 C12        32.7469   26.1831   -0.4068 C.ar      12 UNK        -0.0824 
     13 C13        32.0582   25.1852   -1.1064 C.ar      12 UNK        -0.0762 
     14 C14        32.1149   23.8663   -0.6441 C.ar      12 UNK        -0.0782 
     15 C15        31.3295   25.5015   -2.4108 C.3       12 UNK         0.0230 
     16 S16        30.3738   27.0542   -2.3714 S.3       12 UNK        -0.2608 
     17 C17        28.8593   26.5255   -1.5103 C.3       12 UNK        -0.0989 
     18 CA         27.8270   27.6789   -1.3978 C.3       5 UNK         0.0716 
     19 N          26.4675   27.1454   -1.3424 N.am      5 UNK        -0.4135 
     20 C          25.5098   27.3386   -2.2588 C.2       4 UNK         0.5031 
     21 O          25.6749   27.9890   -3.2923 O.2       4 UNK        -0.5229 
     22 CA         24.1318   26.6889   -2.0111 C.3       4 UNK         0.0329 
     23 CB         23.9225   25.4977   -2.9612 C.3       4 UNK        -0.2001 
     24 N          23.9353   26.2314   -0.6344 N.am      4 UNK        -0.4303 
     25 C          23.7448   27.0315    0.4231 C.2       3 UNK         0.5044 
     26 O          23.5836   28.2492    0.3351 O.2       3 UNK        -0.5152 
     27 CA         23.7472   26.3711    1.8171 C.3       3 UNK         0.0319 
     28 CB         22.3172   26.3010    2.3783 C.3       3 UNK        -0.2001 
     29 N          24.3514   25.0313    1.8839 N.am      3 UNK        -0.4354 
     30 C          25.6198   24.7284    1.5746 C.2       2 UNK         0.4964 
     31 O          26.4223   25.5273    1.0854 O.2       2 UNK        -0.5047 
     32 CA         26.0552   23.2786    1.8032 C.3       2 UNK         0.0288 
     33 CB         25.6660   22.3922    0.6075 C.3       2 UNK        -0.2113 
     34 N          27.5047   23.2788    1.9566 N.am      2 UNK        -0.4145 
     35 C          28.2039   22.5693    2.8486 C.2       1 UNK         0.5006 
     36 O          27.7024   21.7189    3.5868 O.2       1 UNK        -0.5103 
     37 C          28.0778   28.5597   -0.1577 C.2       5 UNK         0.5055 
     38 O          27.3060   28.5166    0.8034 O.2       5 UNK        -0.5220 
     39 N          29.1682   29.3317   -0.1908 N.am      6 UNK        -0.4450 
     40 CA         29.6568   30.1732    0.8977 C.3       6 UNK         0.0367 
     41 CB         28.7519   31.4074    1.0875 C.3       6 UNK        -0.1929 
     42 C          31.0913   30.6057    0.5770 C.2       6 UNK         0.5070 
     43 O          31.4863   30.6038   -0.5919 O.2       6 UNK        -0.5237 
     44 N          31.8232   31.0064    1.6174 N.am      7 UNK        -0.4739 
     45 CA         33.1235   31.6671    1.5364 C.3       7 UNK         0.0276 
     46 CB         34.2594   30.6259    1.4546 C.3       7 UNK        -0.1927 
     47 C          33.2003   32.6130    2.7398 C.2       7 UNK         0.5013 
     48 O          32.4184   33.5645    2.8018 O.2       7 UNK        -0.5193 
     49 N          34.0704   32.3105    3.7127 N.am      8 UNK        -0.4253 
     50 CA         34.0663   32.9063    5.0512 C.3       8 UNK         0.0242 
     51 CB         35.4295   32.6473    5.7193 C.3       8 UNK        -0.2000 
     52 C          32.8946   32.3203    5.8609 C.2       8 UNK         0.4948 
     53 O          33.1024   31.4292    6.6866 O.2       8 UNK        -0.5275 
     54 N          31.6734   32.7628    5.5265 N.am      9 UNK        -0.4246 
     55 CA         30.3908   32.1607    5.9056 C.3       9 UNK         0.0261 
     56 CB         30.1209   32.3284    7.4191 C.3       9 UNK        -0.1959 
     57 C          30.3234   30.7079    5.3926 C.2       9 UNK         0.5033 
     58 O          30.6435   30.4736    4.2226 O.2       9 UNK        -0.5390 
     59 N          29.9723   29.7534    6.2634 N.am      10 UNK        -0.4215 
     60 CA         29.9565   28.3121    5.9934 C.3       10 UNK         0.0240 
     61 CB         29.0175   27.6282    7.0050 C.3       10 UNK        -0.1982 
     62 C          31.3737   27.6944    5.9832 C.2       10 UNK         0.4970 
     63 O          31.6224   26.7071    6.6772 O.2       10 UNK        -0.4916 
     64 N          32.2727   28.2933    5.1927 N.am      11 UNK        -0.4279 
     65 CA         33.6710   27.8885    4.9885 C.3       11 UNK         0.1003 
     66 C          34.5537   27.9394    6.2742 C.2       11 UNK         0.5709 
     67 N          34.3736   28.9268    7.1420 N.am      11 UNK        -0.7358 
     68 O          35.4181   27.0934    6.4930 O.2       11 UNK        -0.4999 
     69 C69        33.7802   26.5550    4.1869 C.3       12 UNK        -0.0954 
     70 S70        35.1324   26.6075    2.9662 S.3       12 UNK        -0.2268 
     71 C71        34.2139   27.0309    1.4440 C.3       12 UNK         0.0203 
     72 H72        30.8464   27.2081    2.9526 H         1 UNK         0.0888 
     73 H73        29.2514   27.2411    2.2113 H         1 UNK         0.0888 
     74 H74        30.5920   26.4576    1.3764 H         1 UNK         0.0888 
     75 H75        30.6495   24.2050    1.6074 H         1 UNK         0.3017 
     76 H76        29.9726   22.8144    4.0031 H         1 UNK         0.0873 
     77 H77        30.1641   20.7475    2.5460 H         1 UNK         0.0745 
     78 H78        30.3436   21.7708    1.1452 H         1 UNK         0.0745 
     79 H79        34.0697   21.8494    0.9777 H         1 UNK         0.0705 
     80 H80        32.5624   21.4089    0.2220 H         1 UNK         0.0705 
     81 H81        34.1123   24.2851    2.0571 H         1 UNK         0.1334 
     82 H82        32.7252   27.2020   -0.7699 H         1 UNK         0.1417 
     83 H83        31.6122   23.0823   -1.1948 H         1 UNK         0.1562 
     84 H84        30.6671   24.6831   -2.6972 H         1 UNK         0.0748 
     85 H85        32.0756   25.5804   -3.2025 H         1 UNK         0.0748 
     86 H86        29.1049   26.0986   -0.5361 H         1 UNK         0.0940 
     87 H87        28.4374   25.7049   -2.0936 H         1 UNK         0.0940 
     88 H88        27.9189   28.3293   -2.2704 H         1 UNK         0.0703 
     89 H89        26.2455   26.6581   -0.4776 H         1 UNK         0.3081 
     90 H90        23.3727   27.4419   -2.2336 H         1 UNK         0.0719 
     91 H91        24.6520   24.7063   -2.7838 H         1 UNK         0.0809 
     92 H92        22.9263   25.0695   -2.8486 H         1 UNK         0.0809 
     93 H93        24.0237   25.8060   -4.0028 H         1 UNK         0.0809 
     94 H94        24.0453   25.2429   -0.4636 H         1 UNK         0.2990 
     95 H95        24.3367   27.0209    2.4675 H         1 UNK         0.0690 
     96 H96        22.3105   25.9441    3.4084 H         1 UNK         0.0788 
     97 H97        21.6844   25.6378    1.7870 H         1 UNK         0.0788 
     98 H98        21.8470   27.2856    2.3777 H         1 UNK         0.0788 
     99 H99        23.7593   24.2984    2.2489 H         1 UNK         0.2993 
    100 H100       25.5784   22.9089    2.7139 H         1 UNK         0.0949 
    101 H101       26.1065   22.7532   -0.3231 H         1 UNK         0.0767 
    102 H102       25.9971   21.3640    0.7558 H         1 UNK         0.0767 
    103 H103       24.5842   22.3667    0.4712 H         1 UNK         0.0767 
    104 H104       27.9724   24.0174    1.4476 H         1 UNK         0.3013 
    105 H105       29.7877   29.3008   -0.9939 H         1 UNK         0.3121 
    106 H106       29.6694   29.5870    1.8183 H         1 UNK         0.0774 
    107 H107       27.7376   31.1246    1.3680 H         1 UNK         0.0815 
    108 H108       29.1324   32.0523    1.8810 H         1 UNK         0.0815 
    109 H109       28.6943   32.0061    0.1778 H         1 UNK         0.0815 
    110 H110       31.4008   30.9765    2.5449 H         1 UNK         0.2987 
    111 H111       33.1579   32.2928    0.6415 H         1 UNK         0.0949 
    112 H112       34.2619   29.9514    2.3099 H         1 UNK         0.0806 
    113 H113       34.1641   30.0188    0.5543 H         1 UNK         0.0806 
    114 H114       35.2354   31.1107    1.4058 H         1 UNK         0.0806 
    115 H115       34.6665   31.5065    3.5834 H         1 UNK         0.3010 
    116 H116       33.9244   33.9864    4.9712 H         1 UNK         0.0829 
    117 H117       36.2408   33.1086    5.1560 H         1 UNK         0.0813 
    118 H118       35.4543   33.0672    6.7258 H         1 UNK         0.0813 
    119 H119       35.6458   31.5815    5.8067 H         1 UNK         0.0813 
    120 H120       31.6308   33.4180    4.7529 H         1 UNK         0.3038 
    121 H121       29.6184   32.7095    5.3650 H         1 UNK         0.0769 
    122 H122       30.8303   31.7726    8.0333 H         1 UNK         0.0811 
    123 H123       29.1161   31.9953    7.6822 H         1 UNK         0.0811 
    124 H124       30.1904   33.3764    7.7107 H         1 UNK         0.0811 
    125 H125       29.7785   30.0318    7.2144 H         1 UNK         0.3204 
    126 H126       29.5354   28.1540    4.9983 H         1 UNK         0.0748 
    127 H127       28.9294   26.5614    6.7934 H         1 UNK         0.0771 
    128 H128       29.3804   27.7309    8.0285 H         1 UNK         0.0771 
    129 H129       28.0120   28.0468    6.9593 H         1 UNK         0.0771 
    130 H130       31.9646   29.1218    4.6941 H         1 UNK         0.2980 
    131 H131       34.0736   28.6848    4.3629 H         1 UNK         0.0545 
    132 H132       33.7314   29.6928    6.9533 H         1 UNK         0.3459 
    133 H133       34.9440   28.9543    7.9712 H         1 UNK         0.3459 
    134 H134       32.8563   26.3411    3.6510 H         1 UNK         0.0616 
    135 H135       33.9235   25.6982    4.8473 H         1 UNK         0.0616 
    136 H136       34.9231   27.4650    0.7380 H         1 UNK         0.0634 
    137 H137       33.4903   27.8121    1.6790 H         1 UNK         0.0634 
@<TRIPOS>BOND
     1    1    2 1    
     2    1   72 1    
     3    1   73 1    
     4    1   74 1    
     5    2    3 2    
     6    2    4 am   BACKBONE|DICT|INTERRES
     7    4    5 1    
     8    4   75 1    
     9    5    6 1    
    10    5   35 1    
    11    5   76 1    
    12    6    7 1    
    13    6   77 1    
    14    6   78 1    
    15    7    8 1    
    16    8    9 1    
    17    8   79 1    
    18    8   80 1    
    19    9   10 ar   
    20    9   14 ar   
    21   10   11 ar   
    22   10   81 1    
    23   11   12 ar   
    24   11   71 1    
    25   12   13 ar   
    26   12   82 1    
    27   13   14 ar   
    28   13   15 1    
    29   14   83 1    
    30   15   16 1    
    31   15   84 1    
    32   15   85 1    
    33   16   17 1    
    34   17   18 1    
    35   17   86 1    
    36   17   87 1    
    37   18   19 1    
    38   18   37 1    
    39   18   88 1    
    40   19   20 am   BACKBONE|DICT|INTERRES
    41   19   89 1    
    42   20   21 2    
    43   20   22 1    
    44   22   23 1    
    45   22   24 1    
    46   22   90 1    
    47   23   91 1    
    48   23   92 1    
    49   23   93 1    
    50   24   25 am   BACKBONE|DICT|INTERRES
    51   24   94 1    
    52   25   26 2    
    53   25   27 1    
    54   27   28 1    
    55   27   29 1    
    56   27   95 1    
    57   28   96 1    
    58   28   97 1    
    59   28   98 1    
    60   29   30 am   BACKBONE|DICT|INTERRES
    61   29   99 1    
    62   30   31 2    
    63   30   32 1    
    64   32   33 1    
    65   32   34 1    
    66   32  100 1    
    67   33  101 1    
    68   33  102 1    
    69   33  103 1    
    70   34   35 am   BACKBONE|DICT|INTERRES
    71   34  104 1    
    72   35   36 2    
    73   37   38 2    
    74   37   39 am   BACKBONE|DICT|INTERRES
    75   39   40 1    
    76   39  105 1    
    77   40   41 1    
    78   40   42 1    
    79   40  106 1    
    80   41  107 1    
    81   41  108 1    
    82   41  109 1    
    83   42   43 2    
    84   42   44 am   BACKBONE|DICT|INTERRES
    85   44   45 1    
    86   44  110 1    
    87   45   46 1    
    88   45   47 1    
    89   45  111 1    
    90   46  112 1    
    91   46  113 1    
    92   46  114 1    
    93   47   48 2    
    94   47   49 am   BACKBONE|DICT|INTERRES
    95   49   50 1    
    96   49  115 1    
    97   50   51 1    
    98   50   52 1    
    99   50  116 1    
   100   51  117 1    
   101   51  118 1    
   102   51  119 1    
   103   52   53 2    
   104   52   54 am   BACKBONE|DICT|INTERRES
   105   54   55 1    
   106   54  120 1    
   107   55   56 1    
   108   55   57 1    
   109   55  121 1    
   110   56  122 1    
   111   56  123 1    
   112   56  124 1    
   113   57   58 2    
   114   57   59 am   BACKBONE|DICT|INTERRES
   115   59   60 1    
   116   59  125 1    
   117   60   61 1    
   118   60   62 1    
   119   60  126 1    
   120   61  127 1    
   121   61  128 1    
   122   61  129 1    
   123   62   63 2    
   124   62   64 am   BACKBONE|DICT|INTERRES
   125   64   65 1    
   126   64  130 1    
   127   65   66 1    
   128   65   69 1    
   129   65  131 1    
   130   66   67 am   BACKBONE|DICT|INTERRES
   131   66   68 2    
   132   67  132 1    
   133   67  133 1    
   134   69   70 1    
   135   69  134 1    
   136   69  135 1    
   137   70   71 1    
   138   71  136 1    
   139   71  137 1    
@<TRIPOS>SUBSTRUCTURE
     1 UNK         1 GROUP             0       ****    0 ROOT    
