@<TRIPOS>MOLECULE
3R136
137   139    1
SMALL
USER_CHARGES


@<TRIPOS>ATOM
      1 CA         31.7138   19.8515   -2.9431 C.3       0 UNK        -0.1979 
      2 C          30.6857   20.8524   -2.4380 C.2       0 UNK         0.4864 
      3 O          30.4381   21.8643   -3.0974 O.2       0 UNK        -0.5359 
      4 N          30.0764   20.5802   -1.2764 N.am      1 UNK        -0.4318 
      5 CA         29.0659   21.4230   -0.6274 C.3       1 UNK         0.0824 
      6 C6         28.9814   21.1538    0.8969 C.3       12 UNK        -0.0944 
      7 S7         30.4101   21.8450    1.7926 S.3       12 UNK        -0.2672 
      8 C8         29.8640   23.5773    1.9309 C.3       12 UNK         0.0333 
      9 C9         30.5188   24.2946    3.0978 C.ar      12 UNK        -0.0807 
     10 C10        31.4920   25.2737    2.8797 C.ar      12 UNK        -0.0894 
     11 C11        32.0017   26.0200    3.9497 C.ar      12 UNK        -0.0804 
     12 C12        31.5601   25.7438    5.2478 C.ar      12 UNK        -0.0824 
     13 C13        30.6041   24.7500    5.4774 C.ar      12 UNK        -0.0762 
     14 C14        30.0905   24.0260    4.3993 C.ar      12 UNK        -0.0782 
     15 C15        30.0876   24.4912    6.8834 C.3       12 UNK         0.0230 
     16 S16        28.9472   25.8029    7.4248 S.3       12 UNK        -0.2608 
     17 C17        27.5797   25.6666    6.2163 C.3       12 UNK        -0.0989 
     18 CA         27.6892   26.6353    5.0059 C.3       5 UNK         0.0716 
     19 N          26.6506   26.3391    4.0178 N.am      5 UNK        -0.4135 
     20 C          26.6427   26.7541    2.7446 C.2       4 UNK         0.5031 
     21 O          27.5557   27.3909    2.2114 O.2       4 UNK        -0.5229 
     22 CA         25.3563   26.4369    1.9601 C.3       4 UNK         0.0329 
     23 CB         24.2705   27.4778    2.2826 C.3       4 UNK        -0.2001 
     24 N          25.5526   26.4030    0.5089 N.am      4 UNK        -0.4303 
     25 C          26.2107   25.4487   -0.1606 C.2       3 UNK         0.5044 
     26 O          26.7592   24.4811    0.3738 O.2       3 UNK        -0.5152 
     27 CA         26.2595   25.6202   -1.6897 C.3       3 UNK         0.0319 
     28 CB         27.2937   26.6853   -2.0866 C.3       3 UNK        -0.2001 
     29 N          26.6194   24.3638   -2.3439 N.am      3 UNK        -0.4354 
     30 C          25.7592   23.4222   -2.7565 C.2       2 UNK         0.4964 
     31 O          24.5344   23.5476   -2.7323 O.2       2 UNK        -0.5047 
     32 CA         26.3791   22.1095   -3.2734 C.3       2 UNK         0.0288 
     33 CB         26.6483   22.1912   -4.7847 C.3       2 UNK        -0.2113 
     34 N          27.6274   21.7998   -2.5722 N.am      2 UNK        -0.4145 
     35 C          27.6912   21.3203   -1.3236 C.2       1 UNK         0.5006 
     36 O          26.7222   20.8420   -0.7296 O.2       1 UNK        -0.5103 
     37 C          27.6240   28.1147    5.4414 C.2       5 UNK         0.5055 
     38 O          26.5312   28.6729    5.5701 O.2       5 UNK        -0.5220 
     39 N          28.8004   28.6897    5.7033 N.am      6 UNK        -0.4450 
     40 CA         29.0613   30.0210    6.2417 C.3       6 UNK         0.0367 
     41 CB         28.6263   31.1264    5.2525 C.3       6 UNK        -0.1929 
     42 C          30.5666   30.0736    6.5595 C.2       6 UNK         0.5070 
     43 O          31.2106   29.0220    6.6297 O.2       6 UNK        -0.5237 
     44 N          31.1179   31.2845    6.7108 N.am      7 UNK        -0.4739 
     45 CA         32.5637   31.5283    6.7564 C.3       7 UNK         0.0276 
     46 CB         32.8089   32.9991    7.1303 C.3       7 UNK        -0.1927 
     47 C          33.2218   31.2091    5.4019 C.2       7 UNK         0.5013 
     48 O          32.5642   31.3393    4.3680 O.2       7 UNK        -0.5193 
     49 N          34.5124   30.8495    5.4177 N.am      8 UNK        -0.4253 
     50 CA         35.2886   30.3980    4.2511 C.3       8 UNK         0.0242 
     51 CB         36.7276   30.0867    4.6936 C.3       8 UNK        -0.2000 
     52 C          35.2968   31.3477    3.0357 C.2       8 UNK         0.4948 
     53 O          35.4378   30.8773    1.9068 O.2       8 UNK        -0.5275 
     54 N          35.1397   32.6548    3.2806 N.am      9 UNK        -0.4246 
     55 CA         35.0378   33.6872    2.2473 C.3       9 UNK         0.0261 
     56 CB         35.5643   35.0119    2.8260 C.3       9 UNK        -0.1959 
     57 C          33.6086   33.8772    1.6994 C.2       9 UNK         0.5033 
     58 O          33.4595   34.5464    0.6754 O.2       9 UNK        -0.5390 
     59 N          32.5903   33.3400    2.3864 N.am      10 UNK        -0.4215 
     60 CA         31.1710   33.5739    2.1028 C.3       10 UNK         0.0240 
     61 CB         30.5158   34.1739    3.3596 C.3       10 UNK        -0.1982 
     62 C          30.4154   32.3043    1.6789 C.2       10 UNK         0.4970 
     63 O          29.4007   32.4278    0.9916 O.2       10 UNK        -0.4916 
     64 N          30.8773   31.1272    2.1196 N.am      11 UNK        -0.4279 
     65 CA         30.2278   29.8277    1.9005 C.3       11 UNK         0.1003 
     66 C          30.1017   29.3936    0.4128 C.2       11 UNK         0.5709 
     67 N          29.1995   28.4669    0.1245 N.am      11 UNK        -0.7358 
     68 O          30.8196   29.8599   -0.4708 O.2       11 UNK        -0.4999 
     69 C69        30.8587   28.7288    2.7930 C.3       12 UNK        -0.0954 
     70 S70        32.5627   28.2565    2.3398 S.3       12 UNK        -0.2268 
     71 C71        33.0064   27.1463    3.7194 C.3       12 UNK         0.0203 
     72 H72        31.8330   19.0099   -2.2610 H         1 UNK         0.0888 
     73 H73        31.4113   19.4612   -3.9145 H         1 UNK         0.0888 
     74 H74        32.6833   20.3358   -3.0567 H         1 UNK         0.0888 
     75 H75        30.3094   19.7285   -0.7858 H         1 UNK         0.3017 
     76 H76        29.3693   22.4647   -0.7534 H         1 UNK         0.0873 
     77 H77        28.0771   21.5855    1.3311 H         1 UNK         0.0745 
     78 H78        28.9204   20.0827    1.0972 H         1 UNK         0.0745 
     79 H79        28.7827   23.6232    2.0686 H         1 UNK         0.0705 
     80 H80        30.0701   24.0956    0.9931 H         1 UNK         0.0705 
     81 H81        31.8190   25.4892    1.8717 H         1 UNK         0.1334 
     82 H82        31.9382   26.3211    6.0813 H         1 UNK         0.1417 
     83 H83        29.3327   23.2722    4.5656 H         1 UNK         0.1562 
     84 H84        30.9289   24.4442    7.5764 H         1 UNK         0.0748 
     85 H85        29.5857   23.5242    6.9452 H         1 UNK         0.0748 
     86 H86        26.6432   25.8364    6.7514 H         1 UNK         0.0940 
     87 H87        27.5314   24.6346    5.8655 H         1 UNK         0.0940 
     88 H88        28.6492   26.4750    4.5124 H         1 UNK         0.0703 
     89 H89        25.8290   25.8731    4.3731 H         1 UNK         0.3081 
     90 H90        24.9994   25.4524    2.2708 H         1 UNK         0.0719 
     91 H91        24.5727   28.4811    1.9791 H         1 UNK         0.0809 
     92 H92        23.3316   27.2427    1.7807 H         1 UNK         0.0809 
     93 H93        24.0618   27.5136    3.3529 H         1 UNK         0.0809 
     94 H94        25.1747   27.1821   -0.0098 H         1 UNK         0.2990 
     95 H95        25.2747   25.9424   -2.0353 H         1 UNK         0.0690 
     96 H96        28.2955   26.4157   -1.7500 H         1 UNK         0.0788 
     97 H97        27.0453   27.6549   -1.6534 H         1 UNK         0.0788 
     98 H98        27.3291   26.8178   -3.1682 H         1 UNK         0.0788 
     99 H99        27.6040   24.1470   -2.3666 H         1 UNK         0.2993 
    100 H100       25.6614   21.3058   -3.0935 H         1 UNK         0.0949 
    101 H101       27.3654   22.9766   -5.0272 H         1 UNK         0.0767 
    102 H102       27.0409   21.2489   -5.1678 H         1 UNK         0.0767 
    103 H103       25.7298   22.4062   -5.3327 H         1 UNK         0.0767 
    104 H104       28.5010   22.0802   -3.0109 H         1 UNK         0.3013 
    105 H105       29.6438   28.1263    5.6606 H         1 UNK         0.3121 
    106 H106       28.5109   30.1278    7.1780 H         1 UNK         0.0774 
    107 H107       28.6936   32.1145    5.7078 H         1 UNK         0.0815 
    108 H108       29.2529   31.1345    4.3628 H         1 UNK         0.0815 
    109 H109       27.5932   31.0052    4.9289 H         1 UNK         0.0815 
    110 H110       30.5278   32.0977    6.6187 H         1 UNK         0.2987 
    111 H111       32.9997   30.8830    7.5223 H         1 UNK         0.0949 
    112 H112       32.3959   33.6804    6.3848 H         1 UNK         0.0806 
    113 H113       32.3599   33.2437    8.0931 H         1 UNK         0.0806 
    114 H114       33.8757   33.2122    7.2107 H         1 UNK         0.0806 
    115 H115       34.9845   30.8005    6.3094 H         1 UNK         0.3010 
    116 H116       34.8346   29.4662    3.9120 H         1 UNK         0.0829 
    117 H117       36.7498   29.3132    5.4615 H         1 UNK         0.0813 
    118 H118       37.3246   29.7230    3.8558 H         1 UNK         0.0813 
    119 H119       37.2279   30.9710    5.0902 H         1 UNK         0.0813 
    120 H120       35.0442   32.9545    4.2400 H         1 UNK         0.3038 
    121 H121       35.6744   33.4122    1.4034 H         1 UNK         0.0769 
    122 H122       35.5442   35.8027    2.0746 H         1 UNK         0.0811 
    123 H123       36.5968   34.9157    3.1627 H         1 UNK         0.0811 
    124 H124       34.9642   35.3513    3.6713 H         1 UNK         0.0811 
    125 H125       32.7915   32.7362    3.1802 H         1 UNK         0.3204 
    126 H126       31.0586   34.2947    1.2903 H         1 UNK         0.0748 
    127 H127       29.4542   34.3651    3.1967 H         1 UNK         0.0771 
    128 H128       30.6005   33.5045    4.2166 H         1 UNK         0.0771 
    129 H129       30.9777   35.1235    3.6304 H         1 UNK         0.0771 
    130 H130       31.6833   31.1115    2.7363 H         1 UNK         0.2980 
    131 H131       29.2018   29.9574    2.2509 H         1 UNK         0.0545 
    132 H132       29.1063   28.1597   -0.8283 H         1 UNK         0.3459 
    133 H133       28.6142   28.0663    0.8559 H         1 UNK         0.3459 
    134 H134       30.8707   29.0614    3.8295 H         1 UNK         0.0616 
    135 H135       30.2309   27.8372    2.7745 H         1 UNK         0.0616 
    136 H136       33.1100   27.7546    4.6198 H         1 UNK         0.0634 
    137 H137       33.9870   26.7124    3.5214 H         1 UNK         0.0634 
@<TRIPOS>BOND
     1    1    2 1    
     2    1   72 1    
     3    1   73 1    
     4    1   74 1    
     5    2    3 2    
     6    2    4 am   BACKBONE|DICT|INTERRES
     7    4    5 1    
     8    4   75 1    
     9    5    6 1    
    10    5   35 1    
    11    5   76 1    
    12    6    7 1    
    13    6   77 1    
    14    6   78 1    
    15    7    8 1    
    16    8    9 1    
    17    8   79 1    
    18    8   80 1    
    19    9   10 ar   
    20    9   14 ar   
    21   10   11 ar   
    22   10   81 1    
    23   11   12 ar   
    24   11   71 1    
    25   12   13 ar   
    26   12   82 1    
    27   13   14 ar   
    28   13   15 1    
    29   14   83 1    
    30   15   16 1    
    31   15   84 1    
    32   15   85 1    
    33   16   17 1    
    34   17   18 1    
    35   17   86 1    
    36   17   87 1    
    37   18   19 1    
    38   18   37 1    
    39   18   88 1    
    40   19   20 am   BACKBONE|DICT|INTERRES
    41   19   89 1    
    42   20   21 2    
    43   20   22 1    
    44   22   23 1    
    45   22   24 1    
    46   22   90 1    
    47   23   91 1    
    48   23   92 1    
    49   23   93 1    
    50   24   25 am   BACKBONE|DICT|INTERRES
    51   24   94 1    
    52   25   26 2    
    53   25   27 1    
    54   27   28 1    
    55   27   29 1    
    56   27   95 1    
    57   28   96 1    
    58   28   97 1    
    59   28   98 1    
    60   29   30 am   BACKBONE|DICT|INTERRES
    61   29   99 1    
    62   30   31 2    
    63   30   32 1    
    64   32   33 1    
    65   32   34 1    
    66   32  100 1    
    67   33  101 1    
    68   33  102 1    
    69   33  103 1    
    70   34   35 am   BACKBONE|DICT|INTERRES
    71   34  104 1    
    72   35   36 2    
    73   37   38 2    
    74   37   39 am   BACKBONE|DICT|INTERRES
    75   39   40 1    
    76   39  105 1    
    77   40   41 1    
    78   40   42 1    
    79   40  106 1    
    80   41  107 1    
    81   41  108 1    
    82   41  109 1    
    83   42   43 2    
    84   42   44 am   BACKBONE|DICT|INTERRES
    85   44   45 1    
    86   44  110 1    
    87   45   46 1    
    88   45   47 1    
    89   45  111 1    
    90   46  112 1    
    91   46  113 1    
    92   46  114 1    
    93   47   48 2    
    94   47   49 am   BACKBONE|DICT|INTERRES
    95   49   50 1    
    96   49  115 1    
    97   50   51 1    
    98   50   52 1    
    99   50  116 1    
   100   51  117 1    
   101   51  118 1    
   102   51  119 1    
   103   52   53 2    
   104   52   54 am   BACKBONE|DICT|INTERRES
   105   54   55 1    
   106   54  120 1    
   107   55   56 1    
   108   55   57 1    
   109   55  121 1    
   110   56  122 1    
   111   56  123 1    
   112   56  124 1    
   113   57   58 2    
   114   57   59 am   BACKBONE|DICT|INTERRES
   115   59   60 1    
   116   59  125 1    
   117   60   61 1    
   118   60   62 1    
   119   60  126 1    
   120   61  127 1    
   121   61  128 1    
   122   61  129 1    
   123   62   63 2    
   124   62   64 am   BACKBONE|DICT|INTERRES
   125   64   65 1    
   126   64  130 1    
   127   65   66 1    
   128   65   69 1    
   129   65  131 1    
   130   66   67 am   BACKBONE|DICT|INTERRES
   131   66   68 2    
   132   67  132 1    
   133   67  133 1    
   134   69   70 1    
   135   69  134 1    
   136   69  135 1    
   137   70   71 1    
   138   71  136 1    
   139   71  137 1    
@<TRIPOS>SUBSTRUCTURE
     1 UNK         1 GROUP             0       ****    0 ROOT    
