@<TRIPOS>MOLECULE
3R136
137   139    1
SMALL
USER_CHARGES


@<TRIPOS>ATOM
      1 CA         31.3547   26.5122   -4.8735 C.3       0 UNK        -0.1979 
      2 C          30.2595   26.4378   -3.8209 C.2       0 UNK         0.4864 
      3 O          29.2467   27.1305   -3.9382 O.2       0 UNK        -0.5359 
      4 N          30.4443   25.5979   -2.7939 N.am      1 UNK        -0.4318 
      5 CA         29.5223   25.4169   -1.6665 C.3       1 UNK         0.0824 
      6 C6         30.2313   24.8524   -0.4088 C.3       12 UNK        -0.0944 
      7 S7         31.6932   25.8137    0.1093 S.3       12 UNK        -0.2672 
      8 C8         32.6424   24.5433    1.0090 C.3       12 UNK         0.0333 
      9 C9         32.0966   24.3274    2.4136 C.ar      12 UNK        -0.0807 
     10 C10        32.7357   24.9111    3.5110 C.ar      12 UNK        -0.0894 
     11 C11        32.2190   24.7541    4.8000 C.ar      12 UNK        -0.0804 
     12 C12        31.0531   24.0069    4.9897 C.ar      12 UNK        -0.0824 
     13 C13        30.4115   23.4079    3.9015 C.ar      12 UNK        -0.0762 
     14 C14        30.9488   23.5555    2.6198 C.ar      12 UNK        -0.0782 
     15 C15        29.1318   22.6092    4.1047 C.3       12 UNK         0.0230 
     16 S16        27.6712   23.4807    3.4484 S.3       12 UNK        -0.2608 
     17 C17        27.6175   24.9767    4.4949 C.3       12 UNK        -0.0989 
     18 CA         28.0391   26.2458    3.7149 C.3       5 UNK         0.0716 
     19 N          27.1405   26.5166    2.5920 N.am      5 UNK        -0.4135 
     20 C          27.3082   27.4651    1.6644 C.2       4 UNK         0.5031 
     21 O          28.3026   28.1948    1.6144 O.2       4 UNK        -0.5229 
     22 CA         26.1717   27.6339    0.6327 C.3       4 UNK         0.0329 
     23 CB         26.5758   28.5237   -0.5577 C.3       4 UNK        -0.2001 
     24 N          25.6762   26.3631    0.0990 N.am      4 UNK        -0.4303 
     25 C          24.8665   25.4851    0.7058 C.2       3 UNK         0.5044 
     26 O          24.4529   25.6386    1.8554 O.2       3 UNK        -0.5152 
     27 CA         24.4957   24.1985   -0.0628 C.3       3 UNK         0.0319 
     28 CB         22.9725   24.0750   -0.2702 C.3       3 UNK        -0.2001 
     29 N          25.2398   24.0141   -1.3197 N.am      3 UNK        -0.4354 
     30 C          25.1366   24.6971   -2.4697 C.2       2 UNK         0.4964 
     31 O          24.2895   25.5633   -2.6874 O.2       2 UNK        -0.5047 
     32 CA         26.2550   24.4399   -3.4970 C.3       2 UNK         0.0288 
     33 CB         25.9187   24.9982   -4.8921 C.3       2 UNK        -0.2113 
     34 N          27.5127   25.0392   -3.0388 N.am      2 UNK        -0.4145 
     35 C          28.2987   24.5601   -2.0653 C.2       1 UNK         0.5006 
     36 O          28.0745   23.4917   -1.4911 O.2       1 UNK        -0.5103 
     37 C          28.0845   27.4753    4.6417 C.2       5 UNK         0.5055 
     38 O          27.0286   27.9384    5.0793 O.2       5 UNK        -0.5220 
     39 N          29.2959   27.9936    4.8844 N.am      6 UNK        -0.4450 
     40 CA         29.5972   29.2286    5.6232 C.3       6 UNK         0.0367 
     41 CB         29.1599   29.1240    7.1001 C.3       6 UNK        -0.1929 
     42 C          29.1029   30.5200    4.9374 C.2       6 UNK         0.5070 
     43 O          29.0309   31.5592    5.5959 O.2       6 UNK        -0.5237 
     44 N          28.7996   30.4508    3.6337 N.am      7 UNK        -0.4739 
     45 CA         28.4432   31.5968    2.7953 C.3       7 UNK         0.0276 
     46 CB         26.9733   31.4886    2.3573 C.3       7 UNK        -0.1927 
     47 C          29.3873   31.6972    1.5899 C.2       7 UNK         0.5013 
     48 O          29.8947   32.7846    1.3142 O.2       7 UNK        -0.5193 
     49 N          29.6377   30.5674    0.9122 N.am      8 UNK        -0.4253 
     50 CA         30.5812   30.4653   -0.2064 C.3       8 UNK         0.0242 
     51 CB         30.1657   29.2931   -1.1089 C.3       8 UNK        -0.2000 
     52 C          32.0450   30.3003    0.2417 C.2       8 UNK         0.4948 
     53 O          32.9409   30.4419   -0.5923 O.2       8 UNK        -0.5275 
     54 N          32.2701   30.0014    1.5261 N.am      9 UNK        -0.4246 
     55 CA         33.5815   29.8149    2.1358 C.3       9 UNK         0.0261 
     56 CB         33.8690   28.3097    2.2633 C.3       9 UNK        -0.1959 
     57 C          33.5819   30.4791    3.5143 C.2       9 UNK         0.5033 
     58 O          32.5464   30.4935    4.1846 O.2       9 UNK        -0.5390 
     59 N          34.7503   30.9807    3.9294 N.am      10 UNK        -0.4215 
     60 CA         34.9915   31.5534    5.2535 C.3       10 UNK         0.0240 
     61 CB         36.0743   32.6436    5.1405 C.3       10 UNK        -0.1982 
     62 C          35.3790   30.4332    6.2330 C.2       10 UNK         0.4970 
     63 O          36.5556   30.2886    6.5710 O.2       10 UNK        -0.4916 
     64 N          34.3837   29.6272    6.6177 N.am      11 UNK        -0.4279 
     65 CA         34.5151   28.4725    7.5194 C.3       11 UNK         0.1003 
     66 C          35.0429   28.8520    8.9310 C.2       11 UNK         0.5709 
     67 N          35.8471   27.9945    9.5448 N.am      11 UNK        -0.7358 
     68 O          34.6946   29.8914    9.4892 O.2       11 UNK        -0.4999 
     69 C69        33.1809   27.6924    7.6384 C.3       12 UNK        -0.0954 
     70 S70        32.5094   27.1829    6.0232 S.3       12 UNK        -0.2268 
     71 C71        32.9075   25.4147    5.9823 C.3       12 UNK         0.0203 
     72 H72        31.7400   27.5292   -4.9403 H         1 UNK         0.0888 
     73 H73        32.1877   25.8484   -4.6427 H         1 UNK         0.0888 
     74 H74        30.9571   26.2327   -5.8487 H         1 UNK         0.0888 
     75 H75        31.2901   25.0475   -2.7506 H         1 UNK         0.3017 
     76 H76        29.1303   26.3977   -1.3935 H         1 UNK         0.0873 
     77 H77        29.5336   24.8331    0.4311 H         1 UNK         0.0745 
     78 H78        30.5382   23.8197   -0.5848 H         1 UNK         0.0745 
     79 H79        33.6844   24.8633    1.0572 H         1 UNK         0.0705 
     80 H80        32.6421   23.6042    0.4540 H         1 UNK         0.0705 
     81 H81        33.6286   25.5028    3.3636 H         1 UNK         0.1334 
     82 H82        30.6427   23.8970    5.9844 H         1 UNK         0.1417 
     83 H83        30.4521   23.0891    1.7807 H         1 UNK         0.1562 
     84 H84        28.9737   22.3849    5.1608 H         1 UNK         0.0748 
     85 H85        29.2245   21.6466    3.5997 H         1 UNK         0.0748 
     86 H86        28.2541   24.8311    5.3693 H         1 UNK         0.0940 
     87 H87        26.6019   25.0849    4.8814 H         1 UNK         0.0940 
     88 H88        29.0372   26.0806    3.3018 H         1 UNK         0.0703 
     89 H89        26.2671   26.0010    2.5805 H         1 UNK         0.3081 
     90 H90        25.3509   28.1294    1.1552 H         1 UNK         0.0719 
     91 H91        27.3605   28.0603   -1.1547 H         1 UNK         0.0809 
     92 H92        25.7266   28.7105   -1.2154 H         1 UNK         0.0809 
     93 H93        26.9436   29.4963   -0.2311 H         1 UNK         0.0809 
     94 H94        25.9474   26.1467   -0.8476 H         1 UNK         0.2990 
     95 H95        24.8044   23.3722    0.5795 H         1 UNK         0.0690 
     96 H96        22.7162   23.1566   -0.7982 H         1 UNK         0.0788 
     97 H97        22.5658   24.9139   -0.8353 H         1 UNK         0.0788 
     98 H98        22.4520   24.0532    0.6881 H         1 UNK         0.0788 
     99 H99        26.0435   23.3967   -1.2444 H         1 UNK         0.2993 
    100 H100       26.3856   23.3591   -3.5890 H         1 UNK         0.0949 
    101 H101       25.8114   26.0838   -4.8800 H         1 UNK         0.0767 
    102 H102       26.6952   24.7481   -5.6154 H         1 UNK         0.0767 
    103 H103       24.9822   24.5805   -5.2645 H         1 UNK         0.0767 
    104 H104       27.8011   25.9087   -3.4809 H         1 UNK         0.3013 
    105 H105       30.1025   27.5319    4.4849 H         1 UNK         0.3121 
    106 H106       30.6820   29.3187    5.6222 H         1 UNK         0.0774 
    107 H107       29.5381   29.9669    7.6796 H         1 UNK         0.0815 
    108 H108       28.0749   29.1211    7.2048 H         1 UNK         0.0815 
    109 H109       29.5475   28.2167    7.5634 H         1 UNK         0.0815 
    110 H110       28.8527   29.5509    3.1715 H         1 UNK         0.2987 
    111 H111       28.5552   32.5276    3.3560 H         1 UNK         0.0949 
    112 H112       26.7054   32.2983    1.6772 H         1 UNK         0.0806 
    113 H113       26.7668   30.5487    1.8484 H         1 UNK         0.0806 
    114 H114       26.3049   31.5518    3.2160 H         1 UNK         0.0806 
    115 H115       29.1607   29.7065    1.1775 H         1 UNK         0.3010 
    116 H116       30.5297   31.3807   -0.8000 H         1 UNK         0.0829 
    117 H117       29.1982   29.4772   -1.5734 H         1 UNK         0.0813 
    118 H118       30.8816   29.1392   -1.9176 H         1 UNK         0.0813 
    119 H119       30.1053   28.3618   -0.5464 H         1 UNK         0.0813 
    120 H120       31.4932   29.9795    2.1725 H         1 UNK         0.3038 
    121 H121       34.3545   30.2833    1.5226 H         1 UNK         0.0769 
    122 H122       34.8320   28.1285    2.7421 H         1 UNK         0.0811 
    123 H123       33.8941   27.8274    1.2860 H         1 UNK         0.0811 
    124 H124       33.1055   27.8103    2.8611 H         1 UNK         0.0811 
    125 H125       35.5590   30.8863    3.3311 H         1 UNK         0.3204 
    126 H126       34.0799   32.0271    5.6254 H         1 UNK         0.0748 
    127 H127       36.2842   33.0859    6.1154 H         1 UNK         0.0771 
    128 H128       37.0138   32.2483    4.7521 H         1 UNK         0.0771 
    129 H129       35.7540   33.4512    4.4819 H         1 UNK         0.0771 
    130 H130       33.4593   29.7935    6.2432 H         1 UNK         0.2980 
    131 H131       35.2497   27.8076    7.0607 H         1 UNK         0.0545 
    132 H132       36.1862   28.2167   10.4678 H         1 UNK         0.3459 
    133 H133       36.1287   27.1336    9.1023 H         1 UNK         0.3459 
    134 H134       32.4243   28.3083    8.1285 H         1 UNK         0.0616 
    135 H135       33.3065   26.8101    8.2686 H         1 UNK         0.0616 
    136 H136       32.5944   24.9456    6.9163 H         1 UNK         0.0634 
    137 H137       33.9884   25.2856    5.9100 H         1 UNK         0.0634 
@<TRIPOS>BOND
     1    1    2 1    
     2    1   72 1    
     3    1   73 1    
     4    1   74 1    
     5    2    3 2    
     6    2    4 am   BACKBONE|DICT|INTERRES
     7    4    5 1    
     8    4   75 1    
     9    5    6 1    
    10    5   35 1    
    11    5   76 1    
    12    6    7 1    
    13    6   77 1    
    14    6   78 1    
    15    7    8 1    
    16    8    9 1    
    17    8   79 1    
    18    8   80 1    
    19    9   10 ar   
    20    9   14 ar   
    21   10   11 ar   
    22   10   81 1    
    23   11   12 ar   
    24   11   71 1    
    25   12   13 ar   
    26   12   82 1    
    27   13   14 ar   
    28   13   15 1    
    29   14   83 1    
    30   15   16 1    
    31   15   84 1    
    32   15   85 1    
    33   16   17 1    
    34   17   18 1    
    35   17   86 1    
    36   17   87 1    
    37   18   19 1    
    38   18   37 1    
    39   18   88 1    
    40   19   20 am   BACKBONE|DICT|INTERRES
    41   19   89 1    
    42   20   21 2    
    43   20   22 1    
    44   22   23 1    
    45   22   24 1    
    46   22   90 1    
    47   23   91 1    
    48   23   92 1    
    49   23   93 1    
    50   24   25 am   BACKBONE|DICT|INTERRES
    51   24   94 1    
    52   25   26 2    
    53   25   27 1    
    54   27   28 1    
    55   27   29 1    
    56   27   95 1    
    57   28   96 1    
    58   28   97 1    
    59   28   98 1    
    60   29   30 am   BACKBONE|DICT|INTERRES
    61   29   99 1    
    62   30   31 2    
    63   30   32 1    
    64   32   33 1    
    65   32   34 1    
    66   32  100 1    
    67   33  101 1    
    68   33  102 1    
    69   33  103 1    
    70   34   35 am   BACKBONE|DICT|INTERRES
    71   34  104 1    
    72   35   36 2    
    73   37   38 2    
    74   37   39 am   BACKBONE|DICT|INTERRES
    75   39   40 1    
    76   39  105 1    
    77   40   41 1    
    78   40   42 1    
    79   40  106 1    
    80   41  107 1    
    81   41  108 1    
    82   41  109 1    
    83   42   43 2    
    84   42   44 am   BACKBONE|DICT|INTERRES
    85   44   45 1    
    86   44  110 1    
    87   45   46 1    
    88   45   47 1    
    89   45  111 1    
    90   46  112 1    
    91   46  113 1    
    92   46  114 1    
    93   47   48 2    
    94   47   49 am   BACKBONE|DICT|INTERRES
    95   49   50 1    
    96   49  115 1    
    97   50   51 1    
    98   50   52 1    
    99   50  116 1    
   100   51  117 1    
   101   51  118 1    
   102   51  119 1    
   103   52   53 2    
   104   52   54 am   BACKBONE|DICT|INTERRES
   105   54   55 1    
   106   54  120 1    
   107   55   56 1    
   108   55   57 1    
   109   55  121 1    
   110   56  122 1    
   111   56  123 1    
   112   56  124 1    
   113   57   58 2    
   114   57   59 am   BACKBONE|DICT|INTERRES
   115   59   60 1    
   116   59  125 1    
   117   60   61 1    
   118   60   62 1    
   119   60  126 1    
   120   61  127 1    
   121   61  128 1    
   122   61  129 1    
   123   62   63 2    
   124   62   64 am   BACKBONE|DICT|INTERRES
   125   64   65 1    
   126   64  130 1    
   127   65   66 1    
   128   65   69 1    
   129   65  131 1    
   130   66   67 am   BACKBONE|DICT|INTERRES
   131   66   68 2    
   132   67  132 1    
   133   67  133 1    
   134   69   70 1    
   135   69  134 1    
   136   69  135 1    
   137   70   71 1    
   138   71  136 1    
   139   71  137 1    
@<TRIPOS>SUBSTRUCTURE
     1 UNK         1 GROUP             0       ****    0 ROOT    
