@<TRIPOS>MOLECULE
3R136
137   139    1
SMALL
USER_CHARGES


@<TRIPOS>ATOM
      1 CA         26.9540   23.4150    1.9749 C.3       0 UNK        -0.1979 
      2 C          27.8278   22.4841    1.1529 C.2       0 UNK         0.4864 
      3 O          27.7787   21.2668    1.3379 O.2       0 UNK        -0.5359 
      4 N          28.6144   23.0555    0.2379 N.am      1 UNK        -0.4318 
      5 CA         29.4616   22.3234   -0.7034 C.3       1 UNK         0.0824 
      6 C6         30.7317   21.6697   -0.0847 C.3       12 UNK        -0.0944 
      7 S7         31.7212   22.7582    1.0028 S.3       12 UNK        -0.2672 
      8 C8         31.8123   21.8063    2.5569 C.3       12 UNK         0.0333 
      9 C9         31.4306   22.6640    3.7530 C.ar      12 UNK        -0.0807 
     10 C10        32.3347   23.6034    4.2583 C.ar      12 UNK        -0.0894 
     11 C11        31.9785   24.4194    5.3360 C.ar      12 UNK        -0.0804 
     12 C12        30.7291   24.2578    5.9411 C.ar      12 UNK        -0.0824 
     13 C13        29.8214   23.3154    5.4515 C.ar      12 UNK        -0.0762 
     14 C14        30.1734   22.5269    4.3509 C.ar      12 UNK        -0.0782 
     15 C15        28.4660   23.1375    6.1179 C.3       12 UNK         0.0230 
     16 S16        27.1954   24.1994    5.3645 S.3       12 UNK        -0.2608 
     17 C17        27.5046   25.8184    6.1442 C.3       12 UNK        -0.0989 
     18 CA         28.1073   26.8757    5.1813 C.3       5 UNK         0.0716 
     19 N          27.2944   27.0546    3.9726 N.am      5 UNK        -0.4135 
     20 C          27.5721   27.8683    2.9441 C.2       4 UNK         0.5031 
     21 O          28.5625   28.6001    2.8827 O.2       4 UNK        -0.5229 
     22 CA         26.5286   27.9143    1.8153 C.3       4 UNK         0.0329 
     23 CB         25.5519   29.0780    2.0521 C.3       4 UNK        -0.2001 
     24 N          27.1531   28.0818    0.5011 N.am      4 UNK        -0.4303 
     25 C          27.8130   27.1225   -0.1604 C.2       3 UNK         0.5044 
     26 O          27.9002   25.9557    0.2359 O.2       3 UNK        -0.5152 
     27 CA         28.4628   27.5161   -1.5010 C.3       3 UNK         0.0319 
     28 CB         28.9747   28.9679   -1.5548 C.3       3 UNK        -0.2001 
     29 N          29.5710   26.6055   -1.7444 N.am      3 UNK        -0.4354 
     30 C          30.0259   26.1848   -2.9267 C.2       2 UNK         0.4964 
     31 O          29.6281   26.6042   -4.0141 O.2       2 UNK        -0.5047 
     32 CA         31.0796   25.0650   -2.8748 C.3       2 UNK         0.0288 
     33 CB         32.4834   25.6363   -2.6202 C.3       2 UNK        -0.2113 
     34 N          30.7612   24.0651   -1.8495 N.am      2 UNK        -0.4145 
     35 C          29.7234   23.2201   -1.9207 C.2       1 UNK         0.5006 
     36 O          28.9681   23.1453   -2.8922 O.2       1 UNK        -0.5103 
     37 C          28.2818   28.2102    5.9315 C.2       5 UNK         0.5055 
     38 O          27.2878   28.7498    6.4224 O.2       5 UNK        -0.5220 
     39 N          29.5224   28.7147    5.9987 N.am      6 UNK        -0.4450 
     40 CA         29.9993   29.9279    6.6853 C.3       6 UNK         0.0367 
     41 CB         29.8078   29.8043    8.2091 C.3       6 UNK        -0.1929 
     42 C          29.4343   31.2698    6.1735 C.2       6 UNK         0.5070 
     43 O          30.1460   32.2731    6.2221 O.2       6 UNK        -0.5237 
     44 N          28.1821   31.2813    5.7027 N.am      7 UNK        -0.4739 
     45 CA         27.4702   32.4439    5.1677 C.3       7 UNK         0.0276 
     46 CB         25.9845   32.0850    5.0042 C.3       7 UNK        -0.1927 
     47 C          28.0462   32.9659    3.8403 C.2       7 UNK         0.5013 
     48 O          27.8736   34.1477    3.5382 O.2       7 UNK        -0.5193 
     49 N          28.7162   32.0901    3.0830 N.am      8 UNK        -0.4253 
     50 CA         29.4512   32.4179    1.8672 C.3       8 UNK         0.0242 
     51 CB         28.9002   31.5664    0.7167 C.3       8 UNK        -0.2000 
     52 C          30.9331   32.1098    2.1034 C.2       8 UNK         0.4948 
     53 O          31.2495   31.1165    2.7618 O.2       8 UNK        -0.5275 
     54 N          31.8153   32.9417    1.5329 N.am      9 UNK        -0.4246 
     55 CA         33.2729   32.8776    1.7079 C.3       9 UNK         0.0261 
     56 CB         33.9193   34.0955    1.0273 C.3       9 UNK        -0.1959 
     57 C          33.9281   31.5755    1.2107 C.2       9 UNK         0.5033 
     58 O          34.9719   31.1895    1.7385 O.2       9 UNK        -0.5390 
     59 N          33.3070   30.9188    0.2212 N.am      10 UNK        -0.4215 
     60 CA         33.7245   29.6129   -0.2963 C.3       10 UNK         0.0240 
     61 CB         33.0697   29.3818   -1.6684 C.3       10 UNK        -0.1982 
     62 C          33.4058   28.4442    0.6576 C.2       10 UNK         0.4970 
     63 O          34.0273   27.3894    0.5244 O.2       10 UNK        -0.4916 
     64 N          32.4624   28.6497    1.5890 N.am      11 UNK        -0.4279 
     65 CA         31.9304   27.6602    2.5360 C.3       11 UNK         0.1003 
     66 C          31.1262   26.5091    1.8615 C.2       11 UNK         0.5709 
     67 N          30.5176   25.6354    2.6449 N.am      11 UNK        -0.7358 
     68 O          31.0311   26.3933    0.6426 O.2       11 UNK        -0.4999 
     69 C69        33.0141   27.1619    3.5413 C.3       12 UNK        -0.0954 
     70 S70        32.4204   27.1436    5.2664 S.3       12 UNK        -0.2268 
     71 C71        32.9288   25.4922    5.8392 C.3       12 UNK         0.0203 
     72 H72        26.1758   23.8553    1.3515 H         1 UNK         0.0888 
     73 H73        26.4737   22.8742    2.7902 H         1 UNK         0.0888 
     74 H74        27.5506   24.2219    2.4007 H         1 UNK         0.0888 
     75 H75        28.5648   24.0638    0.1083 H         1 UNK         0.3017 
     76 H76        28.8571   21.5009   -1.0937 H         1 UNK         0.0873 
     77 H77        31.3851   21.2876   -0.8714 H         1 UNK         0.0745 
     78 H78        30.4228   20.7851    0.4720 H         1 UNK         0.0745 
     79 H79        31.1745   20.9230    2.5185 H         1 UNK         0.0705 
     80 H80        32.8306   21.4356    2.6824 H         1 UNK         0.0705 
     81 H81        33.3005   23.7216    3.7862 H         1 UNK         0.1334 
     82 H82        30.4607   24.8774    6.7856 H         1 UNK         0.1417 
     83 H83        29.4680   21.8054    3.9603 H         1 UNK         0.1562 
     84 H84        28.5328   23.3326    7.1893 H         1 UNK         0.0748 
     85 H85        28.1472   22.0982    6.0239 H         1 UNK         0.0748 
     86 H86        28.1489   25.6841    7.0147 H         1 UNK         0.0940 
     87 H87        26.5481   26.1663    6.5405 H         1 UNK         0.0940 
     88 H88        29.0887   26.5239    4.8616 H         1 UNK         0.0703 
     89 H89        26.4456   26.5097    3.9445 H         1 UNK         0.3081 
     90 H90        25.9661   26.9779    1.8123 H         1 UNK         0.0719 
     91 H91        26.0649   30.0411    2.0481 H         1 UNK         0.0809 
     92 H92        24.7756   29.1075    1.2873 H         1 UNK         0.0809 
     93 H93        25.0513   28.9799    3.0165 H         1 UNK         0.0809 
     94 H94        27.1525   29.0152    0.1201 H         1 UNK         0.2990 
     95 H95        27.7068   27.3736   -2.2755 H         1 UNK         0.0690 
     96 H96        29.4582   29.1790   -2.5089 H         1 UNK         0.0788 
     97 H97        29.7061   29.1530   -0.7681 H         1 UNK         0.0788 
     98 H98        28.1633   29.6881   -1.4497 H         1 UNK         0.0788 
     99 H99        29.9945   26.2348   -0.8943 H         1 UNK         0.2993 
    100 H100       31.0834   24.5677   -3.8473 H         1 UNK         0.0949 
    101 H101       32.7460   26.3753   -3.3782 H         1 UNK         0.0767 
    102 H102       32.5505   26.1248   -1.6471 H         1 UNK         0.0767 
    103 H103       33.2416   24.8538   -2.6535 H         1 UNK         0.0767 
    104 H104       31.3138   24.0759   -1.0006 H         1 UNK         0.3013 
    105 H105       30.2529   28.2109    5.5125 H         1 UNK         0.3121 
    106 H106       31.0732   29.9622    6.4930 H         1 UNK         0.0774 
    107 H107       30.2466   30.6583    8.7269 H         1 UNK         0.0815 
    108 H108       28.7536   29.7660    8.4852 H         1 UNK         0.0815 
    109 H109       30.2904   28.9077    8.5979 H         1 UNK         0.0815 
    110 H110       27.6609   30.4102    5.7764 H         1 UNK         0.2987 
    111 H111       27.5529   33.2521    5.8976 H         1 UNK         0.0949 
    112 H112       25.8444   31.2583    4.3072 H         1 UNK         0.0806 
    113 H113       25.5386   31.7986    5.9570 H         1 UNK         0.0806 
    114 H114       25.4157   32.9345    4.6233 H         1 UNK         0.0806 
    115 H115       28.8639   31.1532    3.4384 H         1 UNK         0.3010 
    116 H116       29.3410   33.4746    1.6143 H         1 UNK         0.0829 
    117 H117       27.8530   31.7977    0.5216 H         1 UNK         0.0813 
    118 H118       29.4518   31.7434   -0.2074 H         1 UNK         0.0813 
    119 H119       28.9690   30.5042    0.9519 H         1 UNK         0.0813 
    120 H120       31.4651   33.7205    0.9925 H         1 UNK         0.3038 
    121 H121       33.4716   32.9427    2.7799 H         1 UNK         0.0769 
    122 H122       33.5480   35.0304    1.4478 H         1 UNK         0.0811 
    123 H123       33.7271   34.1085   -0.0463 H         1 UNK         0.0811 
    124 H124       35.0018   34.0904    1.1639 H         1 UNK         0.0811 
    125 H125       32.4658   31.3209   -0.1652 H         1 UNK         0.3204 
    126 H126       34.8074   29.6328   -0.4375 H         1 UNK         0.0748 
    127 H127       33.3001   30.1902   -2.3626 H         1 UNK         0.0771 
    128 H128       33.4349   28.4588   -2.1193 H         1 UNK         0.0771 
    129 H129       31.9855   29.2992   -1.5925 H         1 UNK         0.0771 
    130 H130       32.0354   29.5655    1.6640 H         1 UNK         0.2980 
    131 H131       31.1861   28.2349    3.0872 H         1 UNK         0.0545 
    132 H132       30.0255   24.8730    2.2116 H         1 UNK         0.3459 
    133 H133       30.6766   25.6323    3.6391 H         1 UNK         0.3459 
    134 H134       33.4036   26.1842    3.2534 H         1 UNK         0.0616 
    135 H135       33.8786   27.8275    3.5332 H         1 UNK         0.0616 
    136 H136       32.9364   25.4858    6.9300 H         1 UNK         0.0634 
    137 H137       33.9541   25.2910    5.5247 H         1 UNK         0.0634 
@<TRIPOS>BOND
     1    1    2 1    
     2    1   72 1    
     3    1   73 1    
     4    1   74 1    
     5    2    3 2    
     6    2    4 am   BACKBONE|DICT|INTERRES
     7    4    5 1    
     8    4   75 1    
     9    5    6 1    
    10    5   35 1    
    11    5   76 1    
    12    6    7 1    
    13    6   77 1    
    14    6   78 1    
    15    7    8 1    
    16    8    9 1    
    17    8   79 1    
    18    8   80 1    
    19    9   10 ar   
    20    9   14 ar   
    21   10   11 ar   
    22   10   81 1    
    23   11   12 ar   
    24   11   71 1    
    25   12   13 ar   
    26   12   82 1    
    27   13   14 ar   
    28   13   15 1    
    29   14   83 1    
    30   15   16 1    
    31   15   84 1    
    32   15   85 1    
    33   16   17 1    
    34   17   18 1    
    35   17   86 1    
    36   17   87 1    
    37   18   19 1    
    38   18   37 1    
    39   18   88 1    
    40   19   20 am   BACKBONE|DICT|INTERRES
    41   19   89 1    
    42   20   21 2    
    43   20   22 1    
    44   22   23 1    
    45   22   24 1    
    46   22   90 1    
    47   23   91 1    
    48   23   92 1    
    49   23   93 1    
    50   24   25 am   BACKBONE|DICT|INTERRES
    51   24   94 1    
    52   25   26 2    
    53   25   27 1    
    54   27   28 1    
    55   27   29 1    
    56   27   95 1    
    57   28   96 1    
    58   28   97 1    
    59   28   98 1    
    60   29   30 am   BACKBONE|DICT|INTERRES
    61   29   99 1    
    62   30   31 2    
    63   30   32 1    
    64   32   33 1    
    65   32   34 1    
    66   32  100 1    
    67   33  101 1    
    68   33  102 1    
    69   33  103 1    
    70   34   35 am   BACKBONE|DICT|INTERRES
    71   34  104 1    
    72   35   36 2    
    73   37   38 2    
    74   37   39 am   BACKBONE|DICT|INTERRES
    75   39   40 1    
    76   39  105 1    
    77   40   41 1    
    78   40   42 1    
    79   40  106 1    
    80   41  107 1    
    81   41  108 1    
    82   41  109 1    
    83   42   43 2    
    84   42   44 am   BACKBONE|DICT|INTERRES
    85   44   45 1    
    86   44  110 1    
    87   45   46 1    
    88   45   47 1    
    89   45  111 1    
    90   46  112 1    
    91   46  113 1    
    92   46  114 1    
    93   47   48 2    
    94   47   49 am   BACKBONE|DICT|INTERRES
    95   49   50 1    
    96   49  115 1    
    97   50   51 1    
    98   50   52 1    
    99   50  116 1    
   100   51  117 1    
   101   51  118 1    
   102   51  119 1    
   103   52   53 2    
   104   52   54 am   BACKBONE|DICT|INTERRES
   105   54   55 1    
   106   54  120 1    
   107   55   56 1    
   108   55   57 1    
   109   55  121 1    
   110   56  122 1    
   111   56  123 1    
   112   56  124 1    
   113   57   58 2    
   114   57   59 am   BACKBONE|DICT|INTERRES
   115   59   60 1    
   116   59  125 1    
   117   60   61 1    
   118   60   62 1    
   119   60  126 1    
   120   61  127 1    
   121   61  128 1    
   122   61  129 1    
   123   62   63 2    
   124   62   64 am   BACKBONE|DICT|INTERRES
   125   64   65 1    
   126   64  130 1    
   127   65   66 1    
   128   65   69 1    
   129   65  131 1    
   130   66   67 am   BACKBONE|DICT|INTERRES
   131   66   68 2    
   132   67  132 1    
   133   67  133 1    
   134   69   70 1    
   135   69  134 1    
   136   69  135 1    
   137   70   71 1    
   138   71  136 1    
   139   71  137 1    
@<TRIPOS>SUBSTRUCTURE
     1 UNK         1 GROUP             0       ****    0 ROOT    
