@<TRIPOS>MOLECULE
3R136
137   139    1
SMALL
USER_CHARGES


@<TRIPOS>ATOM
      1 CA         26.2690   26.5438    3.4602 C.3       0 UNK        -0.1979 
      2 C          27.1681   25.4783    2.8521 C.2       0 UNK         0.4864 
      3 O          27.6159   25.6298    1.7122 O.2       0 UNK        -0.5359 
      4 N          27.4495   24.4151    3.6155 N.am      1 UNK        -0.4318 
      5 CA         28.2776   23.2672    3.2381 C.3       1 UNK         0.0824 
      6 C6         29.7674   23.6473    3.0074 C.3       12 UNK        -0.0944 
      7 S7         30.8978   22.2476    3.3221 S.3       12 UNK        -0.2672 
      8 C8         31.5831   21.8830    1.6711 C.3       12 UNK         0.0333 
      9 C9         32.2689   23.0927    1.0514 C.ar      12 UNK        -0.0807 
     10 C10        33.3667   23.6850    1.6827 C.ar      12 UNK        -0.0894 
     11 C11        33.9521   24.8380    1.1522 C.ar      12 UNK        -0.0804 
     12 C12        33.4468   25.3856   -0.0309 C.ar      12 UNK        -0.0824 
     13 C13        32.3505   24.8000   -0.6723 C.ar      12 UNK        -0.0762 
     14 C14        31.7803   23.6438   -0.1360 C.ar      12 UNK        -0.0782 
     15 C15        31.7376   25.4515   -1.9067 C.3       12 UNK         0.0230 
     16 S16        30.0898   26.1612   -1.5568 S.3       12 UNK        -0.2608 
     17 C17        30.4338   27.0910   -0.0270 C.3       12 UNK        -0.0989 
     18 CA         29.5186   28.3168    0.1973 C.3       5 UNK         0.0716 
     19 N          28.0945   27.9770    0.2152 N.am      5 UNK        -0.4135 
     20 C          27.0991   28.8675    0.1023 C.2       4 UNK         0.5031 
     21 O          27.2825   30.0765   -0.0448 O.2       4 UNK        -0.5229 
     22 CA         25.6654   28.3144    0.1522 C.3       4 UNK         0.0329 
     23 CB         24.6276   29.2720   -0.4674 C.3       4 UNK        -0.2001 
     24 N          25.5956   27.0081   -0.5031 N.am      4 UNK        -0.4303 
     25 C          24.7579   26.0200   -0.1692 C.2       3 UNK         0.5044 
     26 O          23.9425   26.0825    0.7508 O.2       3 UNK        -0.5152 
     27 CA         24.8597   24.7385   -0.9990 C.3       3 UNK         0.0319 
     28 CB         24.9207   25.0205   -2.5171 C.3       3 UNK        -0.2001 
     29 N          26.0203   23.9666   -0.5584 N.am      3 UNK        -0.4354 
     30 C          26.2105   22.6679   -0.8287 C.2       2 UNK         0.4964 
     31 O          25.4072   21.9754   -1.4554 O.2       2 UNK        -0.5047 
     32 CA         27.5185   22.0212   -0.3431 C.3       2 UNK         0.0288 
     33 CB         28.5605   22.0269   -1.4733 C.3       2 UNK        -0.2113 
     34 N          28.0781   22.6647    0.8480 N.am      2 UNK        -0.4145 
     35 C          27.6106   22.4781    2.0906 C.2       1 UNK         0.5006 
     36 O          26.6702   21.7268    2.3569 O.2       1 UNK        -0.5103 
     37 C          29.9162   29.0081    1.5096 C.2       5 UNK         0.5055 
     38 O          30.4630   30.1117    1.4861 O.2       5 UNK        -0.5220 
     39 N          29.6200   28.3396    2.6356 N.am      6 UNK        -0.4450 
     40 CA         30.0129   28.7441    3.9894 C.3       6 UNK         0.0367 
     41 CB         29.5938   27.6629    4.9959 C.3       6 UNK        -0.1929 
     42 C          29.4814   30.1194    4.4231 C.2       6 UNK         0.5070 
     43 O          30.1279   30.7794    5.2338 O.2       6 UNK        -0.5237 
     44 N          28.3552   30.5495    3.8386 N.am      7 UNK        -0.4739 
     45 CA         27.7635   31.8765    4.0243 C.3       7 UNK         0.0276 
     46 CB         26.4039   31.9193    3.3074 C.3       7 UNK        -0.1927 
     47 C          28.6614   33.0344    3.5444 C.2       7 UNK         0.5013 
     48 O          28.5208   34.1451    4.0580 O.2       7 UNK        -0.5193 
     49 N          29.5571   32.7603    2.5854 N.am      8 UNK        -0.4253 
     50 CA         30.5294   33.7149    2.0532 C.3       8 UNK         0.0242 
     51 CB         30.3761   33.7923    0.5246 C.3       8 UNK        -0.2000 
     52 C          31.9661   33.3229    2.4276 C.2       8 UNK         0.4948 
     53 O          32.7425   34.1913    2.8266 O.2       8 UNK        -0.5275 
     54 N          32.3061   32.0361    2.2732 N.am      9 UNK        -0.4246 
     55 CA         33.6697   31.5174    2.4014 C.3       9 UNK         0.0261 
     56 CB         33.8068   30.2815    1.4970 C.3       9 UNK        -0.1959 
     57 C          34.0931   31.1805    3.8420 C.2       9 UNK         0.5033 
     58 O          35.2878   30.9842    4.0676 O.2       9 UNK        -0.5390 
     59 N          33.1346   31.0944    4.7794 N.am      10 UNK        -0.4215 
     60 CA         33.3160   30.7301    6.1948 C.3       10 UNK         0.0240 
     61 CB         34.1555   31.7921    6.9385 C.3       10 UNK        -0.1982 
     62 C          33.8358   29.2915    6.4149 C.2       10 UNK         0.4970 
     63 O          34.4669   29.0211    7.4384 O.2       10 UNK        -0.4916 
     64 N          33.5568   28.3960    5.4586 N.am      11 UNK        -0.4279 
     65 CA         33.8911   26.9644    5.4926 C.3       11 UNK         0.1003 
     66 C          33.1973   26.2033    6.6564 C.2       11 UNK         0.5709 
     67 N          33.8402   25.1753    7.1935 N.am      11 UNK        -0.7358 
     68 O          32.0727   26.5084    7.0477 O.2       11 UNK        -0.4999 
     69 C69        33.5758   26.2862    4.1339 C.3       12 UNK        -0.0954 
     70 S70        34.5542   26.9984    2.7686 S.3       12 UNK        -0.2268 
     71 C71        35.1088   25.5142    1.8720 C.3       12 UNK         0.0203 
     72 H72        26.1813   26.4303    4.5405 H         1 UNK         0.0888 
     73 H73        26.6646   27.5379    3.2588 H         1 UNK         0.0888 
     74 H74        25.2695   26.4789    3.0332 H         1 UNK         0.0888 
     75 H75        27.0223   24.3446    4.5287 H         1 UNK         0.3017 
     76 H76        28.2424   22.6085    4.1079 H         1 UNK         0.0873 
     77 H77        29.9385   24.0975    2.0302 H         1 UNK         0.0745 
     78 H78        30.0550   24.4203    3.7213 H         1 UNK         0.0745 
     79 H79        30.7835   21.5107    1.0293 H         1 UNK         0.0705 
     80 H80        32.3065   21.0716    1.7609 H         1 UNK         0.0705 
     81 H81        33.7417   23.2646    2.6059 H         1 UNK         0.1334 
     82 H82        33.8872   26.2895   -0.4294 H         1 UNK         0.1417 
     83 H83        30.9299   23.2006   -0.6293 H         1 UNK         0.1562 
     84 H84        31.6469   24.7121   -2.7036 H         1 UNK         0.0748 
     85 H85        32.3879   26.2393   -2.2903 H         1 UNK         0.0748 
     86 H86        31.4733   27.4243   -0.0542 H         1 UNK         0.0940 
     87 H87        30.3626   26.3851    0.8033 H         1 UNK         0.0940 
     88 H88        29.6908   29.0232   -0.6180 H         1 UNK         0.0703 
     89 H89        27.8666   27.0108    0.4350 H         1 UNK         0.3081 
     90 H90        25.4245   28.1978    1.2097 H         1 UNK         0.0719 
     91 H91        24.8291   29.4514   -1.5240 H         1 UNK         0.0809 
     92 H92        23.6169   28.8727   -0.3818 H         1 UNK         0.0809 
     93 H93        24.6332   30.2391    0.0372 H         1 UNK         0.0809 
     94 H94        26.2362   26.8638   -1.2719 H         1 UNK         0.2990 
     95 H95        23.9573   24.1575   -0.7958 H         1 UNK         0.0690 
     96 H96        25.8756   25.4523   -2.8184 H         1 UNK         0.0788 
     97 H97        24.1333   25.7120   -2.8204 H         1 UNK         0.0788 
     98 H98        24.7792   24.1067   -3.0942 H         1 UNK         0.0788 
     99 H99        26.6910   24.4560    0.0238 H         1 UNK         0.2993 
    100 H100       27.2934   20.9801   -0.1000 H         1 UNK         0.0949 
    101 H101       28.8518   23.0409   -1.7509 H         1 UNK         0.0767 
    102 H102       29.4555   21.4730   -1.1908 H         1 UNK         0.0767 
    103 H103       28.1631   21.5494   -2.3702 H         1 UNK         0.0767 
    104 H104       28.8086   23.3466    0.7078 H         1 UNK         0.3013 
    105 H105       29.1594   27.4453    2.5446 H         1 UNK         0.3121 
    106 H106       31.1016   28.8077    3.9958 H         1 UNK         0.0774 
    107 H107       29.9313   27.9201    6.0010 H         1 UNK         0.0815 
    108 H108       28.5116   27.5462    5.0418 H         1 UNK         0.0815 
    109 H109       30.0315   26.6951    4.7520 H         1 UNK         0.0815 
    110 H110       27.9083   29.9450    3.1660 H         1 UNK         0.2987 
    111 H111       27.5961   32.0192    5.0942 H         1 UNK         0.0949 
    112 H112       26.5087   31.7587    2.2332 H         1 UNK         0.0806 
    113 H113       25.7241   31.1611    3.6966 H         1 UNK         0.0806 
    114 H114       25.9199   32.8872    3.4460 H         1 UNK         0.0806 
    115 H115       29.6102   31.8114    2.2307 H         1 UNK         0.3010 
    116 H116       30.3487   34.7129    2.4583 H         1 UNK         0.0829 
    117 H117       31.0995   34.4856    0.0931 H         1 UNK         0.0813 
    118 H118       30.5288   32.8215    0.0507 H         1 UNK         0.0813 
    119 H119       29.3831   34.1456    0.2462 H         1 UNK         0.0813 
    120 H120       31.6082   31.3753    1.9327 H         1 UNK         0.3038 
    121 H121       34.3661   32.2748    2.0348 H         1 UNK         0.0769 
    122 H122       34.8220   29.8833    1.5273 H         1 UNK         0.0811 
    123 H123       33.5867   30.5237    0.4572 H         1 UNK         0.0811 
    124 H124       33.1327   29.4812    1.8027 H         1 UNK         0.0811 
    125 H125       32.1767   31.2822    4.5076 H         1 UNK         0.3204 
    126 H126       32.3209   30.7466    6.6399 H         1 UNK         0.0748 
    127 H127       34.1502   31.6130    8.0143 H         1 UNK         0.0771 
    128 H128       35.1967   31.7871    6.6150 H         1 UNK         0.0771 
    129 H129       33.7585   32.7944    6.7776 H         1 UNK         0.0771 
    130 H130       33.0640   28.7098    4.6393 H         1 UNK         0.2980 
    131 H131       34.9680   26.9003    5.6607 H         1 UNK         0.0545 
    132 H132       33.3996   24.6606    7.9397 H         1 UNK         0.3459 
    133 H133       34.7584   24.9077    6.8749 H         1 UNK         0.3459 
    134 H134       33.7829   25.2164    4.1920 H         1 UNK         0.0616 
    135 H135       32.5166   26.3780    3.8864 H         1 UNK         0.0616 
    136 H136       35.5969   24.8270    2.5650 H         1 UNK         0.0634 
    137 H137       35.8674   25.8059    1.1444 H         1 UNK         0.0634 
@<TRIPOS>BOND
     1    1    2 1    
     2    1   72 1    
     3    1   73 1    
     4    1   74 1    
     5    2    3 2    
     6    2    4 am   BACKBONE|DICT|INTERRES
     7    4    5 1    
     8    4   75 1    
     9    5    6 1    
    10    5   35 1    
    11    5   76 1    
    12    6    7 1    
    13    6   77 1    
    14    6   78 1    
    15    7    8 1    
    16    8    9 1    
    17    8   79 1    
    18    8   80 1    
    19    9   10 ar   
    20    9   14 ar   
    21   10   11 ar   
    22   10   81 1    
    23   11   12 ar   
    24   11   71 1    
    25   12   13 ar   
    26   12   82 1    
    27   13   14 ar   
    28   13   15 1    
    29   14   83 1    
    30   15   16 1    
    31   15   84 1    
    32   15   85 1    
    33   16   17 1    
    34   17   18 1    
    35   17   86 1    
    36   17   87 1    
    37   18   19 1    
    38   18   37 1    
    39   18   88 1    
    40   19   20 am   BACKBONE|DICT|INTERRES
    41   19   89 1    
    42   20   21 2    
    43   20   22 1    
    44   22   23 1    
    45   22   24 1    
    46   22   90 1    
    47   23   91 1    
    48   23   92 1    
    49   23   93 1    
    50   24   25 am   BACKBONE|DICT|INTERRES
    51   24   94 1    
    52   25   26 2    
    53   25   27 1    
    54   27   28 1    
    55   27   29 1    
    56   27   95 1    
    57   28   96 1    
    58   28   97 1    
    59   28   98 1    
    60   29   30 am   BACKBONE|DICT|INTERRES
    61   29   99 1    
    62   30   31 2    
    63   30   32 1    
    64   32   33 1    
    65   32   34 1    
    66   32  100 1    
    67   33  101 1    
    68   33  102 1    
    69   33  103 1    
    70   34   35 am   BACKBONE|DICT|INTERRES
    71   34  104 1    
    72   35   36 2    
    73   37   38 2    
    74   37   39 am   BACKBONE|DICT|INTERRES
    75   39   40 1    
    76   39  105 1    
    77   40   41 1    
    78   40   42 1    
    79   40  106 1    
    80   41  107 1    
    81   41  108 1    
    82   41  109 1    
    83   42   43 2    
    84   42   44 am   BACKBONE|DICT|INTERRES
    85   44   45 1    
    86   44  110 1    
    87   45   46 1    
    88   45   47 1    
    89   45  111 1    
    90   46  112 1    
    91   46  113 1    
    92   46  114 1    
    93   47   48 2    
    94   47   49 am   BACKBONE|DICT|INTERRES
    95   49   50 1    
    96   49  115 1    
    97   50   51 1    
    98   50   52 1    
    99   50  116 1    
   100   51  117 1    
   101   51  118 1    
   102   51  119 1    
   103   52   53 2    
   104   52   54 am   BACKBONE|DICT|INTERRES
   105   54   55 1    
   106   54  120 1    
   107   55   56 1    
   108   55   57 1    
   109   55  121 1    
   110   56  122 1    
   111   56  123 1    
   112   56  124 1    
   113   57   58 2    
   114   57   59 am   BACKBONE|DICT|INTERRES
   115   59   60 1    
   116   59  125 1    
   117   60   61 1    
   118   60   62 1    
   119   60  126 1    
   120   61  127 1    
   121   61  128 1    
   122   61  129 1    
   123   62   63 2    
   124   62   64 am   BACKBONE|DICT|INTERRES
   125   64   65 1    
   126   64  130 1    
   127   65   66 1    
   128   65   69 1    
   129   65  131 1    
   130   66   67 am   BACKBONE|DICT|INTERRES
   131   66   68 2    
   132   67  132 1    
   133   67  133 1    
   134   69   70 1    
   135   69  134 1    
   136   69  135 1    
   137   70   71 1    
   138   71  136 1    
   139   71  137 1    
@<TRIPOS>SUBSTRUCTURE
     1 UNK         1 GROUP             0       ****    0 ROOT    
