@<TRIPOS>MOLECULE
3R136
137   139    1
SMALL
USER_CHARGES


@<TRIPOS>ATOM
      1 CA         31.1484   30.3638   -4.3646 C.3       0 UNK        -0.1979 
      2 C          30.2822   29.7139   -3.2953 C.2       0 UNK         0.4864 
      3 O          29.3427   30.3429   -2.8061 O.2       0 UNK        -0.5359 
      4 N          30.5969   28.4647   -2.9278 N.am      1 UNK        -0.4318 
      5 CA         29.8540   27.6708   -1.9440 C.3       1 UNK         0.0824 
      6 C6         30.7342   26.5340   -1.3595 C.3       12 UNK        -0.0944 
      7 S7         30.2557   26.1133    0.3484 S.3       12 UNK        -0.2672 
      8 C8         31.6668   25.0869    0.8474 C.3       12 UNK         0.0333 
      9 C9         31.5900   24.7351    2.3242 C.ar      12 UNK        -0.0807 
     10 C10        32.3008   25.4907    3.2623 C.ar      12 UNK        -0.0894 
     11 C11        32.2621   25.1561    4.6191 C.ar      12 UNK        -0.0804 
     12 C12        31.4866   24.0691    5.0340 C.ar      12 UNK        -0.0824 
     13 C13        30.7501   23.3214    4.1102 C.ar      12 UNK        -0.0762 
     14 C14        30.8192   23.6491    2.7522 C.ar      12 UNK        -0.0782 
     15 C15        29.8885   22.1594    4.5931 C.3       12 UNK         0.0230 
     16 S16        28.1117   22.3617    4.2216 S.3       12 UNK        -0.2608 
     17 C17        27.7627   24.0741    4.7573 C.3       12 UNK        -0.0989 
     18 CA         27.4154   24.9627    3.5312 C.3       5 UNK         0.0716 
     19 N          26.1615   24.6000    2.8585 N.am      5 UNK        -0.4135 
     20 C          24.9253   24.6089    3.3841 C.2       4 UNK         0.5031 
     21 O          24.6832   24.8753    4.5620 O.2       4 UNK        -0.5229 
     22 CA         23.7361   24.2962    2.4488 C.3       4 UNK         0.0329 
     23 CB         22.8244   25.5280    2.3096 C.3       4 UNK        -0.2001 
     24 N          24.1297   23.8585    1.1085 N.am      4 UNK        -0.4303 
     25 C          24.6576   22.6664    0.8008 C.2       3 UNK         0.5044 
     26 O          24.7598   21.7376    1.6021 O.2       3 UNK        -0.5152 
     27 CA         25.1930   22.4871   -0.6348 C.3       3 UNK         0.0319 
     28 CB         24.2292   21.6191   -1.4605 C.3       3 UNK        -0.2001 
     29 N          25.4585   23.7358   -1.3671 N.am      3 UNK        -0.4354 
     30 C          26.3099   24.7010   -0.9918 C.2       2 UNK         0.4964 
     31 O          26.9316   24.6977    0.0751 O.2       2 UNK        -0.5047 
     32 CA         26.4412   25.8991   -1.9374 C.3       2 UNK         0.0288 
     33 CB         25.2746   26.8833   -1.7408 C.3       2 UNK        -0.2113 
     34 N          27.6985   26.5732   -1.6384 N.am      2 UNK        -0.4145 
     35 C          28.5285   27.1275   -2.5254 C.2       1 UNK         0.5006 
     36 O          28.2975   27.1854   -3.7371 O.2       1 UNK        -0.5103 
     37 C          27.4372   26.4757    3.8143 C.2       5 UNK         0.5055 
     38 O          27.5224   26.9080    4.9660 O.2       5 UNK        -0.5220 
     39 N          27.3177   27.2451    2.7243 N.am      6 UNK        -0.4450 
     40 CA         27.4122   28.7039    2.6906 C.3       6 UNK         0.0367 
     41 CB         26.8771   29.1890    1.3307 C.3       6 UNK        -0.1929 
     42 C          28.8543   29.1967    2.9166 C.2       6 UNK         0.5070 
     43 O          29.7976   28.4053    2.8859 O.2       6 UNK        -0.5237 
     44 N          29.0035   30.5119    3.1153 N.am      7 UNK        -0.4739 
     45 CA         30.3037   31.1715    3.2367 C.3       7 UNK         0.0276 
     46 CB         30.1050   32.6105    3.7397 C.3       7 UNK        -0.1927 
     47 C          31.0640   31.1579    1.9001 C.2       7 UNK         0.5013 
     48 O          30.5198   31.6037    0.8874 O.2       7 UNK        -0.5193 
     49 N          32.3061   30.6709    1.9322 N.am      8 UNK        -0.4253 
     50 CA         33.2157   30.5847    0.7942 C.3       8 UNK         0.0242 
     51 CB         32.9895   29.2562    0.0470 C.3       8 UNK        -0.2000 
     52 C          34.6350   30.7403    1.3472 C.2       8 UNK         0.4948 
     53 O          35.3808   29.7617    1.4264 O.2       8 UNK        -0.5275 
     54 N          34.9387   31.9576    1.8237 N.am      9 UNK        -0.4246 
     55 CA         36.1012   32.3629    2.6311 C.3       9 UNK         0.0261 
     56 CB         37.4417   32.0943    1.9171 C.3       9 UNK        -0.1959 
     57 C          36.0661   31.7568    4.0458 C.2       9 UNK         0.5033 
     58 O          36.0590   32.5029    5.0260 O.2       9 UNK        -0.5390 
     59 N          35.9842   30.4248    4.1224 N.am      10 UNK        -0.4215 
     60 CA         35.5999   29.6769    5.3166 C.3       10 UNK         0.0240 
     61 CB         36.1597   28.2493    5.2064 C.3       10 UNK        -0.1982 
     62 C          34.0668   29.6509    5.4408 C.2       10 UNK         0.4970 
     63 O          33.3696   29.7990    4.4334 O.2       10 UNK        -0.4916 
     64 N          33.5761   29.4404    6.6683 N.am      11 UNK        -0.4279 
     65 CA         32.1456   29.3468    7.0236 C.3       11 UNK         0.1003 
     66 C          31.3320   30.6659    6.8460 C.2       11 UNK         0.5709 
     67 N          31.9680   31.8184    6.6693 N.am      11 UNK        -0.7358 
     68 O          30.1056   30.6579    6.9128 O.2       11 UNK        -0.4999 
     69 C69        31.4441   28.1031    6.3967 C.3       12 UNK        -0.0954 
     70 S70        32.1430   26.5478    7.0437 S.3       12 UNK        -0.2268 
     71 C71        33.1045   25.9305    5.6251 C.3       12 UNK         0.0203 
     72 H72        31.9489   29.7039   -4.6985 H         1 UNK         0.0888 
     73 H73        30.5412   30.6255   -5.2308 H         1 UNK         0.0888 
     74 H74        31.6011   31.2760   -3.9768 H         1 UNK         0.0888 
     75 H75        31.3517   27.9866   -3.3981 H         1 UNK         0.3017 
     76 H76        29.5899   28.3526   -1.1314 H         1 UNK         0.0873 
     77 H77        30.7105   25.6368   -1.9819 H         1 UNK         0.0745 
     78 H78        31.7788   26.8481   -1.3293 H         1 UNK         0.0745 
     79 H79        31.6848   24.1774    0.2450 H         1 UNK         0.0705 
     80 H80        32.5963   25.6183    0.6363 H         1 UNK         0.0705 
     81 H81        32.8957   26.3317    2.9320 H         1 UNK         0.1334 
     82 H82        31.4567   23.8090    6.0834 H         1 UNK         0.1417 
     83 H83        30.2578   23.0699    2.0313 H         1 UNK         0.1562 
     84 H84        29.9988   22.0196    5.6697 H         1 UNK         0.0748 
     85 H85        30.2421   21.2375    4.1296 H         1 UNK         0.0748 
     86 H86        28.6249   24.4740    5.2926 H         1 UNK         0.0940 
     87 H87        26.9509   24.0625    5.4850 H         1 UNK         0.0940 
     88 H88        28.2016   24.8067    2.7903 H         1 UNK         0.0703 
     89 H89        26.2604   24.4037    1.8671 H         1 UNK         0.3081 
     90 H90        23.1609   23.4939    2.9157 H         1 UNK         0.0719 
     91 H91        23.3488   26.3692    1.8541 H         1 UNK         0.0809 
     92 H92        21.9475   25.3073    1.7006 H         1 UNK         0.0809 
     93 H93        22.4621   25.8599    3.2837 H         1 UNK         0.0809 
     94 H94        24.0768   24.5495    0.3749 H         1 UNK         0.2990 
     95 H95        26.1432   21.9556   -0.5510 H         1 UNK         0.0690 
     96 H96        24.6432   21.3877   -2.4421 H         1 UNK         0.0788 
     97 H97        23.2675   22.1124   -1.6075 H         1 UNK         0.0788 
     98 H98        24.0344   20.6679   -0.9627 H         1 UNK         0.0788 
     99 H99        24.9726   23.8423   -2.2466 H         1 UNK         0.2993 
    100 H100       26.4499   25.5307   -2.9658 H         1 UNK         0.0949 
    101 H101       24.3188   26.4164   -1.9815 H         1 UNK         0.0767 
    102 H102       25.2160   27.2402   -0.7118 H         1 UNK         0.0767 
    103 H103       25.3801   27.7536   -2.3891 H         1 UNK         0.0767 
    104 H104       28.0290   26.4341   -0.6903 H         1 UNK         0.3013 
    105 H105       27.2855   26.7804    1.8294 H         1 UNK         0.3121 
    106 H106       26.7837   29.1078    3.4871 H         1 UNK         0.0774 
    107 H107       25.8516   28.8580    1.1664 H         1 UNK         0.0815 
    108 H108       26.8736   30.2780    1.2710 H         1 UNK         0.0815 
    109 H109       27.4865   28.8230    0.5034 H         1 UNK         0.0815 
    110 H110       28.1907   31.1103    3.0937 H         1 UNK         0.2987 
    111 H111       30.8857   30.6242    3.9798 H         1 UNK         0.0949 
    112 H112       31.0655   33.1099    3.8730 H         1 UNK         0.0806 
    113 H113       29.5957   32.6264    4.7035 H         1 UNK         0.0806 
    114 H114       29.5202   33.2078    3.0391 H         1 UNK         0.0806 
    115 H115       32.6793   30.3296    2.8190 H         1 UNK         0.3010 
    116 H116       33.0338   31.4111    0.1034 H         1 UNK         0.0829 
    117 H117       31.9808   29.2067   -0.3618 H         1 UNK         0.0813 
    118 H118       33.6860   29.1496   -0.7852 H         1 UNK         0.0813 
    119 H119       33.1231   28.3954    0.7038 H         1 UNK         0.0813 
    120 H120       34.2262   32.6696    1.7347 H         1 UNK         0.3038 
    121 H121       36.0127   33.4440    2.7511 H         1 UNK         0.0769 
    122 H122       37.6382   31.0303    1.7850 H         1 UNK         0.0811 
    123 H123       38.2730   32.5044    2.4919 H         1 UNK         0.0811 
    124 H124       37.4660   32.5631    0.9334 H         1 UNK         0.0811 
    125 H125       35.9055   29.9310    3.2356 H         1 UNK         0.3204 
    126 H126       36.0227   30.1585    6.2009 H         1 UNK         0.0748 
    127 H127       37.2474   28.2570    5.1326 H         1 UNK         0.0771 
    128 H128       35.9002   27.6545    6.0833 H         1 UNK         0.0771 
    129 H129       35.7703   27.7299    4.3295 H         1 UNK         0.0771 
    130 H130       34.2193   29.3357    7.4395 H         1 UNK         0.2980 
    131 H131       32.1390   29.1985    8.1040 H         1 UNK         0.0545 
    132 H132       32.9738   31.8493    6.6319 H         1 UNK         0.3459 
    133 H133       31.4326   32.6672    6.5867 H         1 UNK         0.3459 
    134 H134       31.4955   28.1198    5.3068 H         1 UNK         0.0616 
    135 H135       30.3810   28.0895    6.6422 H         1 UNK         0.0616 
    136 H136       33.6126   26.7652    5.1438 H         1 UNK         0.0634 
    137 H137       33.8872   25.2700    5.9998 H         1 UNK         0.0634 
@<TRIPOS>BOND
     1    1    2 1    
     2    1   72 1    
     3    1   73 1    
     4    1   74 1    
     5    2    3 2    
     6    2    4 am   BACKBONE|DICT|INTERRES
     7    4    5 1    
     8    4   75 1    
     9    5    6 1    
    10    5   35 1    
    11    5   76 1    
    12    6    7 1    
    13    6   77 1    
    14    6   78 1    
    15    7    8 1    
    16    8    9 1    
    17    8   79 1    
    18    8   80 1    
    19    9   10 ar   
    20    9   14 ar   
    21   10   11 ar   
    22   10   81 1    
    23   11   12 ar   
    24   11   71 1    
    25   12   13 ar   
    26   12   82 1    
    27   13   14 ar   
    28   13   15 1    
    29   14   83 1    
    30   15   16 1    
    31   15   84 1    
    32   15   85 1    
    33   16   17 1    
    34   17   18 1    
    35   17   86 1    
    36   17   87 1    
    37   18   19 1    
    38   18   37 1    
    39   18   88 1    
    40   19   20 am   BACKBONE|DICT|INTERRES
    41   19   89 1    
    42   20   21 2    
    43   20   22 1    
    44   22   23 1    
    45   22   24 1    
    46   22   90 1    
    47   23   91 1    
    48   23   92 1    
    49   23   93 1    
    50   24   25 am   BACKBONE|DICT|INTERRES
    51   24   94 1    
    52   25   26 2    
    53   25   27 1    
    54   27   28 1    
    55   27   29 1    
    56   27   95 1    
    57   28   96 1    
    58   28   97 1    
    59   28   98 1    
    60   29   30 am   BACKBONE|DICT|INTERRES
    61   29   99 1    
    62   30   31 2    
    63   30   32 1    
    64   32   33 1    
    65   32   34 1    
    66   32  100 1    
    67   33  101 1    
    68   33  102 1    
    69   33  103 1    
    70   34   35 am   BACKBONE|DICT|INTERRES
    71   34  104 1    
    72   35   36 2    
    73   37   38 2    
    74   37   39 am   BACKBONE|DICT|INTERRES
    75   39   40 1    
    76   39  105 1    
    77   40   41 1    
    78   40   42 1    
    79   40  106 1    
    80   41  107 1    
    81   41  108 1    
    82   41  109 1    
    83   42   43 2    
    84   42   44 am   BACKBONE|DICT|INTERRES
    85   44   45 1    
    86   44  110 1    
    87   45   46 1    
    88   45   47 1    
    89   45  111 1    
    90   46  112 1    
    91   46  113 1    
    92   46  114 1    
    93   47   48 2    
    94   47   49 am   BACKBONE|DICT|INTERRES
    95   49   50 1    
    96   49  115 1    
    97   50   51 1    
    98   50   52 1    
    99   50  116 1    
   100   51  117 1    
   101   51  118 1    
   102   51  119 1    
   103   52   53 2    
   104   52   54 am   BACKBONE|DICT|INTERRES
   105   54   55 1    
   106   54  120 1    
   107   55   56 1    
   108   55   57 1    
   109   55  121 1    
   110   56  122 1    
   111   56  123 1    
   112   56  124 1    
   113   57   58 2    
   114   57   59 am   BACKBONE|DICT|INTERRES
   115   59   60 1    
   116   59  125 1    
   117   60   61 1    
   118   60   62 1    
   119   60  126 1    
   120   61  127 1    
   121   61  128 1    
   122   61  129 1    
   123   62   63 2    
   124   62   64 am   BACKBONE|DICT|INTERRES
   125   64   65 1    
   126   64  130 1    
   127   65   66 1    
   128   65   69 1    
   129   65  131 1    
   130   66   67 am   BACKBONE|DICT|INTERRES
   131   66   68 2    
   132   67  132 1    
   133   67  133 1    
   134   69   70 1    
   135   69  134 1    
   136   69  135 1    
   137   70   71 1    
   138   71  136 1    
   139   71  137 1    
@<TRIPOS>SUBSTRUCTURE
     1 UNK         1 GROUP             0       ****    0 ROOT    
