@<TRIPOS>MOLECULE
3R136
137   139    1
SMALL
USER_CHARGES


@<TRIPOS>ATOM
      1 CA         26.9348   27.7930   -2.6315 C.3       0 UNK        -0.1979 
      2 C          27.0334   26.5543   -1.7553 C.2       0 UNK         0.4864 
      3 O          26.1048   26.2710   -0.9989 O.2       0 UNK        -0.5359 
      4 N          28.1426   25.8091   -1.8715 N.am      1 UNK        -0.4318 
      5 CA         28.5248   24.6466   -1.0519 C.3       1 UNK         0.0824 
      6 C6         29.8448   24.0050   -1.5497 C.3       12 UNK        -0.0944 
      7 S7         31.1971   25.2075   -1.7835 S.3       12 UNK        -0.2672 
      8 C8         32.5825   24.3825   -0.9437 C.3       12 UNK         0.0333 
      9 C9         32.5824   24.6526    0.5528 C.ar      12 UNK        -0.0807 
     10 C10        33.0684   25.8713    1.0333 C.ar      12 UNK        -0.0894 
     11 C11        33.1346   26.1210    2.4062 C.ar      12 UNK        -0.0804 
     12 C12        32.7131   25.1334    3.3023 C.ar      12 UNK        -0.0824 
     13 C13        32.2040   23.9167    2.8349 C.ar      12 UNK        -0.0762 
     14 C14        32.1402   23.6819    1.4574 C.ar      12 UNK        -0.0782 
     15 C15        31.7553   22.8418    3.8170 C.3       12 UNK         0.0230 
     16 S16        29.9489   22.8312    4.0618 S.3       12 UNK        -0.2608 
     17 C17        29.6790   24.4141    4.9276 C.3       12 UNK        -0.0989 
     18 CA         28.9555   25.4378    4.0174 C.3       5 UNK         0.0716 
     19 N          27.5563   25.0648    3.7868 N.am      5 UNK        -0.4135 
     20 C          26.8011   25.5039    2.7739 C.2       4 UNK         0.5031 
     21 O          27.2305   26.2050    1.8550 O.2       4 UNK        -0.5229 
     22 CA         25.3057   25.1905    2.8621 C.3       4 UNK         0.0329 
     23 CB         24.6026   26.2513    3.7349 C.3       4 UNK        -0.2001 
     24 N          24.7227   25.1629    1.5223 N.am      4 UNK        -0.4303 
     25 C          23.5161   24.6610    1.2255 C.2       3 UNK         0.5044 
     26 O          22.7494   24.1747    2.0582 O.2       3 UNK        -0.5152 
     27 CA         23.0979   24.6771   -0.2506 C.3       3 UNK         0.0319 
     28 CB         22.7257   26.0970   -0.7103 C.3       3 UNK        -0.2001 
     29 N          24.1653   24.1375   -1.0907 N.am      3 UNK        -0.4354 
     30 C          24.3383   22.8303   -1.3369 C.2       2 UNK         0.4964 
     31 O          23.5609   21.9546   -0.9548 O.2       2 UNK        -0.5047 
     32 CA         25.5771   22.4134   -2.1503 C.3       2 UNK         0.0288 
     33 CB         25.2089   22.2246   -3.6312 C.3       2 UNK        -0.2113 
     34 N          26.6888   23.3598   -2.0514 N.am      2 UNK        -0.4145 
     35 C          27.4385   23.5539   -0.9561 C.2       1 UNK         0.5006 
     36 O          27.3030   22.9168    0.0894 O.2       1 UNK        -0.5103 
     37 C          29.0231   26.8759    4.5741 C.2       5 UNK         0.5055 
     38 O          29.3173   27.0740    5.7533 O.2       5 UNK        -0.5220 
     39 N          28.7113   27.8446    3.7089 N.am      6 UNK        -0.4450 
     40 CA         28.7748   29.2851    3.9494 C.3       6 UNK         0.0367 
     41 CB         27.4847   29.7632    4.6436 C.3       6 UNK        -0.1929 
     42 C          29.0528   30.0134    2.6223 C.2       6 UNK         0.5070 
     43 O          28.5502   31.1155    2.4010 O.2       6 UNK        -0.5237 
     44 N          29.8200   29.3604    1.7386 N.am      7 UNK        -0.4739 
     45 CA         30.1104   29.8109    0.3764 C.3       7 UNK         0.0276 
     46 CB         30.4826   28.5826   -0.4694 C.3       7 UNK        -0.1927 
     47 C          31.2179   30.8765    0.2932 C.2       7 UNK         0.5013 
     48 O          31.3496   31.5150   -0.7522 O.2       7 UNK        -0.5193 
     49 N          31.9999   31.0461    1.3652 N.am      8 UNK        -0.4253 
     50 CA         33.1080   31.9914    1.4624 C.3       8 UNK         0.0242 
     51 CB         34.3969   31.3204    0.9518 C.3       8 UNK        -0.2000 
     52 C          33.2656   32.4316    2.9200 C.2       8 UNK         0.4948 
     53 O          32.7590   31.7605    3.8222 O.2       8 UNK        -0.5275 
     54 N          34.0213   33.5162    3.1394 N.am      9 UNK        -0.4246 
     55 CA         34.3279   34.0821    4.4622 C.3       9 UNK         0.0261 
     56 CB         35.1138   35.3911    4.2797 C.3       9 UNK        -0.1959 
     57 C          35.0824   33.1298    5.4132 C.2       9 UNK         0.5033 
     58 O          35.0505   33.3395    6.6263 O.2       9 UNK        -0.5390 
     59 N          35.7248   32.0949    4.8543 N.am      10 UNK        -0.4215 
     60 CA         36.3662   30.9985    5.5811 C.3       10 UNK         0.0240 
     61 CB         37.2386   30.1983    4.5991 C.3       10 UNK        -0.1982 
     62 C          35.3770   30.0587    6.3001 C.2       10 UNK         0.4970 
     63 O          35.8054   29.3422    7.2060 O.2       10 UNK        -0.4916 
     64 N          34.1014   30.0586    5.8913 N.am      11 UNK        -0.4279 
     65 CA         33.0373   29.2064    6.4434 C.3       11 UNK         0.1003 
     66 C          31.7436   29.9836    6.8119 C.2       11 UNK         0.5709 
     67 N          31.4325   31.1067    6.1768 N.am      11 UNK        -0.7358 
     68 O          31.0273   29.5807    7.7250 O.2       11 UNK        -0.4999 
     69 C69        32.7550   27.9729    5.5440 C.3       12 UNK        -0.0954 
     70 S70        32.4114   28.4018    3.7985 S.3       12 UNK        -0.2268 
     71 C71        33.6804   27.4503    2.9097 C.3       12 UNK         0.0203 
     72 H72        26.0541   27.7317   -3.2701 H         1 UNK         0.0888 
     73 H73        26.8435   28.6821   -2.0083 H         1 UNK         0.0888 
     74 H74        27.8107   27.9139   -3.2687 H         1 UNK         0.0888 
     75 H75        28.8593   26.1043   -2.5199 H         1 UNK         0.3017 
     76 H76        28.6914   25.0214   -0.0402 H         1 UNK         0.0873 
     77 H77        30.1664   23.2315   -0.8499 H         1 UNK         0.0745 
     78 H78        29.6922   23.5014   -2.5066 H         1 UNK         0.0745 
     79 H79        33.5154   24.7513   -1.3727 H         1 UNK         0.0705 
     80 H80        32.5620   23.3113   -1.1506 H         1 UNK         0.0705 
     81 H81        33.4073   26.6212    0.3314 H         1 UNK         0.1334 
     82 H82        32.7792   25.3164    4.3652 H         1 UNK         0.1417 
     83 H83        31.7616   22.7365    1.0931 H         1 UNK         0.1562 
     84 H84        32.2523   22.9677    4.7803 H         1 UNK         0.0748 
     85 H85        32.0629   21.8623    3.4476 H         1 UNK         0.0748 
     86 H86        30.6400   24.8023    5.2677 H         1 UNK         0.0940 
     87 H87        29.1026   24.2270    5.8354 H         1 UNK         0.0940 
     88 H88        29.4771   25.4509    3.0567 H         1 UNK         0.0703 
     89 H89        27.1224   24.5166    4.5148 H         1 UNK         0.3081 
     90 H90        25.1855   24.2035    3.3139 H         1 UNK         0.0719 
     91 H91        25.0556   26.3124    4.7253 H         1 UNK         0.0809 
     92 H92        23.5478   26.0202    3.8824 H         1 UNK         0.0809 
     93 H93        24.6675   27.2435    3.2861 H         1 UNK         0.0809 
     94 H94        25.3123   25.5452    0.7851 H         1 UNK         0.2990 
     95 H95        22.2066   24.0545   -0.3566 H         1 UNK         0.0690 
     96 H96        22.4103   26.1046   -1.7537 H         1 UNK         0.0788 
     97 H97        23.5570   26.7947   -0.6075 H         1 UNK         0.0788 
     98 H98        21.8984   26.4904   -0.1184 H         1 UNK         0.0788 
     99 H99        24.8889   24.7953   -1.3662 H         1 UNK         0.2993 
    100 H100       25.9156   21.4527   -1.7557 H         1 UNK         0.0949 
    101 H101       24.4006   21.5003   -3.7429 H         1 UNK         0.0767 
    102 H102       24.8753   23.1580   -4.0868 H         1 UNK         0.0767 
    103 H103       26.0565   21.8523   -4.2070 H         1 UNK         0.0767 
    104 H104       26.8736   23.9337   -2.8614 H         1 UNK         0.3013 
    105 H105       28.3806   27.5606    2.7893 H         1 UNK         0.3121 
    106 H106       29.6209   29.4968    4.6053 H         1 UNK         0.0774 
    107 H107       27.5282   30.8314    4.8594 H         1 UNK         0.0815 
    108 H108       26.6069   29.5877    4.0208 H         1 UNK         0.0815 
    109 H109       27.3315   29.2501    5.5930 H         1 UNK         0.0815 
    110 H110       30.2391   28.4861    2.0235 H         1 UNK         0.2987 
    111 H111       29.2039   30.2525   -0.0438 H         1 UNK         0.0949 
    112 H112       29.6920   27.8327   -0.4496 H         1 UNK         0.0806 
    113 H113       30.6425   28.8569   -1.5129 H         1 UNK         0.0806 
    114 H114       31.3985   28.1102   -0.1130 H         1 UNK         0.0806 
    115 H115       31.8017   30.5336    2.2162 H         1 UNK         0.3010 
    116 H116       32.8879   32.8774    0.8627 H         1 UNK         0.0829 
    117 H117       34.2890   30.9916   -0.0821 H         1 UNK         0.0813 
    118 H118       35.2427   32.0081    0.9815 H         1 UNK         0.0813 
    119 H119       34.6609   30.4486    1.5518 H         1 UNK         0.0813 
    120 H120       34.4104   34.0029    2.3439 H         1 UNK         0.3038 
    121 H121       33.3761   34.3191    4.9424 H         1 UNK         0.0769 
    122 H122       36.0674   35.2232    3.7777 H         1 UNK         0.0811 
    123 H123       35.3307   35.8545    5.2434 H         1 UNK         0.0811 
    124 H124       34.5480   36.1171    3.6955 H         1 UNK         0.0811 
    125 H125       35.7067   32.0211    3.8483 H         1 UNK         0.3204 
    126 H126       37.0155   31.4334    6.3439 H         1 UNK         0.0748 
    127 H127       37.7653   29.3920    5.1118 H         1 UNK         0.0771 
    128 H128       36.6421   29.7443    3.8063 H         1 UNK         0.0771 
    129 H129       37.9950   30.8300    4.1327 H         1 UNK         0.0771 
    130 H130       33.8115   30.6810    5.1455 H         1 UNK         0.2980 
    131 H131       33.3818   28.8112    7.4008 H         1 UNK         0.0545 
    132 H132       31.9601   31.4125    5.3622 H         1 UNK         0.3459 
    133 H133       30.6058   31.6097    6.4535 H         1 UNK         0.3459 
    134 H134       31.9191   27.3921    5.9345 H         1 UNK         0.0616 
    135 H135       33.6137   27.3032    5.5915 H         1 UNK         0.0616 
    136 H136       34.5558   27.2833    3.5380 H         1 UNK         0.0634 
    137 H137       34.0253   28.0589    2.0727 H         1 UNK         0.0634 
@<TRIPOS>BOND
     1    1    2 1    
     2    1   72 1    
     3    1   73 1    
     4    1   74 1    
     5    2    3 2    
     6    2    4 am   BACKBONE|DICT|INTERRES
     7    4    5 1    
     8    4   75 1    
     9    5    6 1    
    10    5   35 1    
    11    5   76 1    
    12    6    7 1    
    13    6   77 1    
    14    6   78 1    
    15    7    8 1    
    16    8    9 1    
    17    8   79 1    
    18    8   80 1    
    19    9   10 ar   
    20    9   14 ar   
    21   10   11 ar   
    22   10   81 1    
    23   11   12 ar   
    24   11   71 1    
    25   12   13 ar   
    26   12   82 1    
    27   13   14 ar   
    28   13   15 1    
    29   14   83 1    
    30   15   16 1    
    31   15   84 1    
    32   15   85 1    
    33   16   17 1    
    34   17   18 1    
    35   17   86 1    
    36   17   87 1    
    37   18   19 1    
    38   18   37 1    
    39   18   88 1    
    40   19   20 am   BACKBONE|DICT|INTERRES
    41   19   89 1    
    42   20   21 2    
    43   20   22 1    
    44   22   23 1    
    45   22   24 1    
    46   22   90 1    
    47   23   91 1    
    48   23   92 1    
    49   23   93 1    
    50   24   25 am   BACKBONE|DICT|INTERRES
    51   24   94 1    
    52   25   26 2    
    53   25   27 1    
    54   27   28 1    
    55   27   29 1    
    56   27   95 1    
    57   28   96 1    
    58   28   97 1    
    59   28   98 1    
    60   29   30 am   BACKBONE|DICT|INTERRES
    61   29   99 1    
    62   30   31 2    
    63   30   32 1    
    64   32   33 1    
    65   32   34 1    
    66   32  100 1    
    67   33  101 1    
    68   33  102 1    
    69   33  103 1    
    70   34   35 am   BACKBONE|DICT|INTERRES
    71   34  104 1    
    72   35   36 2    
    73   37   38 2    
    74   37   39 am   BACKBONE|DICT|INTERRES
    75   39   40 1    
    76   39  105 1    
    77   40   41 1    
    78   40   42 1    
    79   40  106 1    
    80   41  107 1    
    81   41  108 1    
    82   41  109 1    
    83   42   43 2    
    84   42   44 am   BACKBONE|DICT|INTERRES
    85   44   45 1    
    86   44  110 1    
    87   45   46 1    
    88   45   47 1    
    89   45  111 1    
    90   46  112 1    
    91   46  113 1    
    92   46  114 1    
    93   47   48 2    
    94   47   49 am   BACKBONE|DICT|INTERRES
    95   49   50 1    
    96   49  115 1    
    97   50   51 1    
    98   50   52 1    
    99   50  116 1    
   100   51  117 1    
   101   51  118 1    
   102   51  119 1    
   103   52   53 2    
   104   52   54 am   BACKBONE|DICT|INTERRES
   105   54   55 1    
   106   54  120 1    
   107   55   56 1    
   108   55   57 1    
   109   55  121 1    
   110   56  122 1    
   111   56  123 1    
   112   56  124 1    
   113   57   58 2    
   114   57   59 am   BACKBONE|DICT|INTERRES
   115   59   60 1    
   116   59  125 1    
   117   60   61 1    
   118   60   62 1    
   119   60  126 1    
   120   61  127 1    
   121   61  128 1    
   122   61  129 1    
   123   62   63 2    
   124   62   64 am   BACKBONE|DICT|INTERRES
   125   64   65 1    
   126   64  130 1    
   127   65   66 1    
   128   65   69 1    
   129   65  131 1    
   130   66   67 am   BACKBONE|DICT|INTERRES
   131   66   68 2    
   132   67  132 1    
   133   67  133 1    
   134   69   70 1    
   135   69  134 1    
   136   69  135 1    
   137   70   71 1    
   138   71  136 1    
   139   71  137 1    
@<TRIPOS>SUBSTRUCTURE
     1 UNK         1 GROUP             0       ****    0 ROOT    
