@<TRIPOS>MOLECULE
3R136
137   139    1
SMALL
USER_CHARGES


@<TRIPOS>ATOM
      1 CA         34.8748   27.4468   -1.2195 C.3       0 UNK        -0.1979 
      2 C          33.4587   27.3031   -0.6834 C.2       0 UNK         0.4864 
      3 O          32.7582   28.2992   -0.5109 O.2       0 UNK        -0.5359 
      4 N          33.0395   26.0587   -0.4299 N.am      1 UNK        -0.4318 
      5 CA         31.6747   25.6818   -0.0548 C.3       1 UNK         0.0824 
      6 C6         31.6752   24.2360    0.5171 C.3       12 UNK        -0.0944 
      7 S7         30.0298   23.5308    0.8874 S.3       12 UNK        -0.2672 
      8 C8         30.2971   22.7608    2.5171 C.3       12 UNK         0.0333 
      9 C9         30.3668   23.7600    3.6673 C.ar      12 UNK        -0.0807 
     10 C10        31.3102   23.5842    4.6841 C.ar      12 UNK        -0.0894 
     11 C11        31.3505   24.4457    5.7857 C.ar      12 UNK        -0.0804 
     12 C12        30.4203   25.4911    5.8660 C.ar      12 UNK        -0.0824 
     13 C13        29.4854   25.6907    4.8468 C.ar      12 UNK        -0.0762 
     14 C14        29.4622   24.8226    3.7532 C.ar      12 UNK        -0.0782 
     15 C15        28.5204   26.8626    4.8984 C.3       12 UNK         0.0230 
     16 S16        26.7847   26.3229    5.0234 S.3       12 UNK        -0.2608 
     17 C17        25.9745   27.7999    4.3302 C.3       12 UNK        -0.0989 
     18 CA         25.8904   27.7068    2.7808 C.3       5 UNK         0.0716 
     19 N          24.9440   26.6999    2.2951 N.am      5 UNK        -0.4135 
     20 C          23.6059   26.7497    2.3750 C.2       4 UNK         0.5031 
     21 O          22.9897   27.6238    2.9873 O.2       4 UNK        -0.5229 
     22 CA         22.8200   25.6433    1.6357 C.3       4 UNK         0.0329 
     23 CB         21.4599   26.1476    1.1070 C.3       4 UNK        -0.2001 
     24 N          23.5757   24.9827    0.5594 N.am      4 UNK        -0.4303 
     25 C          24.1160   25.5602   -0.5244 C.2       3 UNK         0.5044 
     26 O          24.0311   26.7608   -0.7907 O.2       3 UNK        -0.5152 
     27 CA         24.9112   24.6281   -1.4531 C.3       3 UNK         0.0319 
     28 CB         24.0426   24.2023   -2.6475 C.3       3 UNK        -0.2001 
     29 N          26.1598   25.2143   -1.9531 N.am      3 UNK        -0.4354 
     30 C          27.1329   25.7663   -1.2137 C.2       2 UNK         0.4964 
     31 O          27.0726   25.9383    0.0081 O.2       2 UNK        -0.5047 
     32 CA         28.3913   26.1877   -1.9825 C.3       2 UNK         0.0288 
     33 CB         28.1933   27.5252   -2.7136 C.3       2 UNK        -0.2113 
     34 N          29.5052   26.2802   -1.0418 N.am      2 UNK        -0.4145 
     35 C          30.7405   25.8259   -1.2785 C.2       1 UNK         0.5006 
     36 O          31.1365   25.4642   -2.3914 O.2       1 UNK        -0.5103 
     37 C          25.7013   29.0684    2.0789 C.2       5 UNK         0.5055 
     38 O          25.8066   30.1168    2.7186 O.2       5 UNK        -0.5220 
     39 N          25.4811   29.0336    0.7540 N.am      6 UNK        -0.4450 
     40 CA         25.5523   30.2082   -0.1242 C.3       6 UNK         0.0367 
     41 CB         25.0246   29.8368   -1.5189 C.3       6 UNK        -0.1929 
     42 C          26.9761   30.7961   -0.2163 C.2       6 UNK         0.5070 
     43 O          27.1268   31.9845   -0.5003 O.2       6 UNK        -0.5237 
     44 N          27.9841   29.9612    0.0573 N.am      7 UNK        -0.4739 
     45 CA         29.3815   30.3139    0.2597 C.3       7 UNK         0.0276 
     46 CB         30.1423   30.2608   -1.0754 C.3       7 UNK        -0.1927 
     47 C          29.9535   29.3148    1.2738 C.2       7 UNK         0.5013 
     48 O          29.4596   28.1844    1.3552 O.2       7 UNK        -0.5193 
     49 N          30.9659   29.7557    2.0271 N.am      8 UNK        -0.4253 
     50 CA         31.6383   28.9699    3.0669 C.3       8 UNK         0.0242 
     51 CB         31.1016   29.3979    4.4441 C.3       8 UNK        -0.2000 
     52 C          33.1686   29.1162    3.0175 C.2       8 UNK         0.4948 
     53 O          33.8671   28.1964    3.4476 O.2       8 UNK        -0.5275 
     54 N          33.6687   30.2595    2.5153 N.am      9 UNK        -0.4246 
     55 CA         35.0854   30.6301    2.4030 C.3       9 UNK         0.0261 
     56 CB         35.7711   29.8097    1.2887 C.3       9 UNK        -0.1959 
     57 C          35.7951   30.5634    3.7685 C.2       9 UNK         0.5033 
     58 O          35.4033   31.2958    4.6789 O.2       9 UNK        -0.5390 
     59 N          36.7850   29.6705    3.9083 N.am      10 UNK        -0.4215 
     60 CA         37.5245   29.4082    5.1473 C.3       10 UNK         0.0240 
     61 CB         38.6639   28.4183    4.8546 C.3       10 UNK        -0.1982 
     62 C          36.6517   28.8962    6.3101 C.2       10 UNK         0.4970 
     63 O          37.0357   29.0822    7.4655 O.2       10 UNK        -0.4916 
     64 N          35.5015   28.2840    5.9964 N.am      11 UNK        -0.4279 
     65 CA         34.4744   27.8945    6.9713 C.3       11 UNK         0.1003 
     66 C          33.5562   29.0761    7.4178 C.2       11 UNK         0.5709 
     67 N          33.6554   30.2681    6.8379 N.am      11 UNK        -0.7358 
     68 O          32.7480   28.9221    8.3294 O.2       11 UNK        -0.4999 
     69 C69        33.6765   26.6666    6.4547 C.3       12 UNK        -0.0954 
     70 S70        32.9380   25.6728    7.7932 S.3       12 UNK        -0.2268 
     71 C71        32.3881   24.1909    6.8807 C.3       12 UNK         0.0203 
     72 H72        35.6026   27.2834   -0.4259 H         1 UNK         0.0888 
     73 H73        35.0634   26.7240   -2.0131 H         1 UNK         0.0888 
     74 H74        35.0318   28.4432   -1.6319 H         1 UNK         0.0888 
     75 H75        33.6631   25.2881   -0.6215 H         1 UNK         0.3017 
     76 H76        31.3345   26.3637    0.7275 H         1 UNK         0.0873 
     77 H77        32.1624   23.5548   -0.1832 H         1 UNK         0.0745 
     78 H78        32.2810   24.2134    1.4246 H         1 UNK         0.0745 
     79 H79        31.2003   22.1499    2.4737 H         1 UNK         0.0705 
     80 H80        29.4720   22.0749    2.7124 H         1 UNK         0.0705 
     81 H81        32.0081   22.7598    4.6272 H         1 UNK         0.1334 
     82 H82        30.4282   26.1600    6.7152 H         1 UNK         0.1417 
     83 H83        28.7279   24.9732    2.9729 H         1 UNK         0.1562 
     84 H84        28.6607   27.4510    3.9908 H         1 UNK         0.0748 
     85 H85        28.7482   27.5247    5.7352 H         1 UNK         0.0748 
     86 H86        26.5430   28.6740    4.6537 H         1 UNK         0.0940 
     87 H87        24.9834   27.9107    4.7721 H         1 UNK         0.0940 
     88 H88        26.8648   27.3706    2.4222 H         1 UNK         0.0703 
     89 H89        25.3596   25.9539    1.7536 H         1 UNK         0.3081 
     90 H90        22.6186   24.8733    2.3819 H         1 UNK         0.0719 
     91 H91        21.5808   26.9726    0.4039 H         1 UNK         0.0809 
     92 H92        20.9110   25.3534    0.6012 H         1 UNK         0.0809 
     93 H93        20.8291   26.5056    1.9216 H         1 UNK         0.0809 
     94 H94        23.7153   23.9887    0.6825 H         1 UNK         0.2990 
     95 H95        25.1873   23.7331   -0.8918 H         1 UNK         0.0690 
     96 H96        24.5567   23.4749   -3.2762 H         1 UNK         0.0788 
     97 H97        23.7722   25.0557   -3.2712 H         1 UNK         0.0788 
     98 H98        23.1142   23.7379   -2.3118 H         1 UNK         0.0788 
     99 H99        26.2980   25.1584   -2.9515 H         1 UNK         0.2993 
    100 H100       28.6007   25.4083   -2.7189 H         1 UNK         0.0949 
    101 H101       29.0934   27.8155   -3.2556 H         1 UNK         0.0767 
    102 H102       27.3842   27.4601   -3.4419 H         1 UNK         0.0767 
    103 H103       27.9444   28.3280   -2.0239 H         1 UNK         0.0767 
    104 H104       29.2414   26.5388   -0.0951 H         1 UNK         0.3013 
    105 H105       25.3267   28.1381    0.3026 H         1 UNK         0.3121 
    106 H106       24.9049   30.9828    0.2924 H         1 UNK         0.0774 
    107 H107       25.0796   30.6880   -2.1988 H         1 UNK         0.0815 
    108 H108       25.5952   29.0223   -1.9653 H         1 UNK         0.0815 
    109 H109       23.9809   29.5247   -1.4749 H         1 UNK         0.0815 
    110 H110       27.7706   29.0067    0.3202 H         1 UNK         0.2987 
    111 H111       29.4395   31.3211    0.6787 H         1 UNK         0.0949 
    112 H112       30.1948   29.2453   -1.4686 H         1 UNK         0.0806 
    113 H113       29.6737   30.8922   -1.8302 H         1 UNK         0.0806 
    114 H114       31.1686   30.6080   -0.9511 H         1 UNK         0.0806 
    115 H115       31.2975   30.6952    1.8734 H         1 UNK         0.3010 
    116 H116       31.4200   27.9087    2.9246 H         1 UNK         0.0829 
    117 H117       30.0130   29.3822    4.4727 H         1 UNK         0.0813 
    118 H118       31.4552   28.7279    5.2269 H         1 UNK         0.0813 
    119 H119       31.4223   30.4066    4.7073 H         1 UNK         0.0813 
    120 H120       33.0256   30.9834    2.2381 H         1 UNK         0.3038 
    121 H121       35.1110   31.6785    2.1019 H         1 UNK         0.0769 
    122 H122       35.7574   28.7397    1.4974 H         1 UNK         0.0811 
    123 H123       36.8090   30.1150    1.1488 H         1 UNK         0.0811 
    124 H124       35.2659   29.9646    0.3356 H         1 UNK         0.0811 
    125 H125       37.0173   29.0947    3.1121 H         1 UNK         0.3204 
    126 H126       37.9665   30.3533    5.4700 H         1 UNK         0.0748 
    127 H127       39.2541   28.2255    5.7518 H         1 UNK         0.0771 
    128 H128       38.2843   27.4583    4.5021 H         1 UNK         0.0771 
    129 H129       39.3465   28.8090    4.0995 H         1 UNK         0.0771 
    130 H130       35.2279   28.2049    5.0226 H         1 UNK         0.2980 
    131 H131       34.9999   27.5772    7.8740 H         1 UNK         0.0545 
    132 H132       33.0602   31.0133    7.1610 H         1 UNK         0.3459 
    133 H133       34.3292   30.4514    6.1022 H         1 UNK         0.3459 
    134 H134       34.3388   26.0012    5.8982 H         1 UNK         0.0616 
    135 H135       32.9016   26.9690    5.7502 H         1 UNK         0.0616 
    136 H136       33.2706   23.7101    6.4554 H         1 UNK         0.0634 
    137 H137       31.9660   23.4843    7.5960 H         1 UNK         0.0634 
@<TRIPOS>BOND
     1    1    2 1    
     2    1   72 1    
     3    1   73 1    
     4    1   74 1    
     5    2    3 2    
     6    2    4 am   BACKBONE|DICT|INTERRES
     7    4    5 1    
     8    4   75 1    
     9    5    6 1    
    10    5   35 1    
    11    5   76 1    
    12    6    7 1    
    13    6   77 1    
    14    6   78 1    
    15    7    8 1    
    16    8    9 1    
    17    8   79 1    
    18    8   80 1    
    19    9   10 ar   
    20    9   14 ar   
    21   10   11 ar   
    22   10   81 1    
    23   11   12 ar   
    24   11   71 1    
    25   12   13 ar   
    26   12   82 1    
    27   13   14 ar   
    28   13   15 1    
    29   14   83 1    
    30   15   16 1    
    31   15   84 1    
    32   15   85 1    
    33   16   17 1    
    34   17   18 1    
    35   17   86 1    
    36   17   87 1    
    37   18   19 1    
    38   18   37 1    
    39   18   88 1    
    40   19   20 am   BACKBONE|DICT|INTERRES
    41   19   89 1    
    42   20   21 2    
    43   20   22 1    
    44   22   23 1    
    45   22   24 1    
    46   22   90 1    
    47   23   91 1    
    48   23   92 1    
    49   23   93 1    
    50   24   25 am   BACKBONE|DICT|INTERRES
    51   24   94 1    
    52   25   26 2    
    53   25   27 1    
    54   27   28 1    
    55   27   29 1    
    56   27   95 1    
    57   28   96 1    
    58   28   97 1    
    59   28   98 1    
    60   29   30 am   BACKBONE|DICT|INTERRES
    61   29   99 1    
    62   30   31 2    
    63   30   32 1    
    64   32   33 1    
    65   32   34 1    
    66   32  100 1    
    67   33  101 1    
    68   33  102 1    
    69   33  103 1    
    70   34   35 am   BACKBONE|DICT|INTERRES
    71   34  104 1    
    72   35   36 2    
    73   37   38 2    
    74   37   39 am   BACKBONE|DICT|INTERRES
    75   39   40 1    
    76   39  105 1    
    77   40   41 1    
    78   40   42 1    
    79   40  106 1    
    80   41  107 1    
    81   41  108 1    
    82   41  109 1    
    83   42   43 2    
    84   42   44 am   BACKBONE|DICT|INTERRES
    85   44   45 1    
    86   44  110 1    
    87   45   46 1    
    88   45   47 1    
    89   45  111 1    
    90   46  112 1    
    91   46  113 1    
    92   46  114 1    
    93   47   48 2    
    94   47   49 am   BACKBONE|DICT|INTERRES
    95   49   50 1    
    96   49  115 1    
    97   50   51 1    
    98   50   52 1    
    99   50  116 1    
   100   51  117 1    
   101   51  118 1    
   102   51  119 1    
   103   52   53 2    
   104   52   54 am   BACKBONE|DICT|INTERRES
   105   54   55 1    
   106   54  120 1    
   107   55   56 1    
   108   55   57 1    
   109   55  121 1    
   110   56  122 1    
   111   56  123 1    
   112   56  124 1    
   113   57   58 2    
   114   57   59 am   BACKBONE|DICT|INTERRES
   115   59   60 1    
   116   59  125 1    
   117   60   61 1    
   118   60   62 1    
   119   60  126 1    
   120   61  127 1    
   121   61  128 1    
   122   61  129 1    
   123   62   63 2    
   124   62   64 am   BACKBONE|DICT|INTERRES
   125   64   65 1    
   126   64  130 1    
   127   65   66 1    
   128   65   69 1    
   129   65  131 1    
   130   66   67 am   BACKBONE|DICT|INTERRES
   131   66   68 2    
   132   67  132 1    
   133   67  133 1    
   134   69   70 1    
   135   69  134 1    
   136   69  135 1    
   137   70   71 1    
   138   71  136 1    
   139   71  137 1    
@<TRIPOS>SUBSTRUCTURE
     1 UNK         1 GROUP             0       ****    0 ROOT    
