@<TRIPOS>MOLECULE
3R136
137   139    1
SMALL
USER_CHARGES


@<TRIPOS>ATOM
      1 CA         27.6083   19.4461    3.5763 C.3       0 UNK        -0.1979 
      2 C          27.3305   20.0702    2.2168 C.2       0 UNK         0.4864 
      3 O          26.5372   19.5279    1.4463 O.2       0 UNK        -0.5359 
      4 N          27.9787   21.2047    1.9185 N.am      1 UNK        -0.4318 
      5 CA         27.8348   21.9466    0.6578 C.3       1 UNK         0.0824 
      6 C6         28.9956   22.9492    0.4401 C.3       12 UNK        -0.0944 
      7 S7         30.5858   22.0856    0.2114 S.3       12 UNK        -0.2672 
      8 C8         31.4454   22.4422    1.7844 C.3       12 UNK         0.0333 
      9 C9         32.0197   23.8536    1.9370 C.ar      12 UNK        -0.0807 
     10 C10        32.5357   24.2228    3.1841 C.ar      12 UNK        -0.0894 
     11 C11        33.1193   25.4783    3.3772 C.ar      12 UNK        -0.0804 
     12 C12        33.1750   26.3813    2.3117 C.ar      12 UNK        -0.0824 
     13 C13        32.6510   26.0370    1.0640 C.ar      12 UNK        -0.0762 
     14 C14        32.0857   24.7718    0.8792 C.ar      12 UNK        -0.0782 
     15 C15        32.7069   27.0303   -0.0871 C.3       12 UNK         0.0230 
     16 S16        31.3368   28.2244   -0.0031 S.3       12 UNK        -0.2608 
     17 C17        29.8892   27.1468   -0.2920 C.3       12 UNK        -0.0989 
     18 CA         28.7335   27.8619   -1.0374 C.3       5 UNK         0.0716 
     19 N          27.7504   26.9053   -1.5344 N.am      5 UNK        -0.4135 
     20 C          27.7620   26.3366   -2.7443 C.2       4 UNK         0.5031 
     21 O          28.6644   26.5118   -3.5646 O.2       4 UNK        -0.5229 
     22 CA         26.5851   25.4145   -3.1240 C.3       4 UNK         0.0329 
     23 CB         27.0804   23.9827   -3.3904 C.3       4 UNK        -0.2001 
     24 N          25.4923   25.3834   -2.1416 N.am      4 UNK        -0.4303 
     25 C          24.5990   26.3731   -1.9783 C.2       3 UNK         0.5044 
     26 O          24.6337   27.4205   -2.6254 O.2       3 UNK        -0.5152 
     27 CA         23.4681   26.1866   -0.9464 C.3       3 UNK         0.0319 
     28 CB         22.1124   26.0367   -1.6575 C.3       3 UNK        -0.2001 
     29 N          23.6485   25.0508   -0.0400 N.am      3 UNK        -0.4354 
     30 C          24.5215   25.0011    0.9744 C.2       2 UNK         0.4964 
     31 O          25.2933   25.9160    1.2577 O.2       2 UNK        -0.5047 
     32 CA         24.5693   23.7028    1.8046 C.3       2 UNK         0.0288 
     33 CB         23.4226   22.7098    1.5013 C.3       2 UNK        -0.2113 
     34 N          25.8676   23.0310    1.6786 N.am      2 UNK        -0.4145 
     35 C          26.4690   22.6539    0.5380 C.2       1 UNK         0.5006 
     36 O          25.9868   22.8371   -0.5815 O.2       1 UNK        -0.5103 
     37 C          27.9924   28.8630   -0.1365 C.2       5 UNK         0.5055 
     38 O          26.9299   28.5383    0.3986 O.2       5 UNK        -0.5220 
     39 N          28.5812   30.0520    0.0411 N.am      6 UNK        -0.4450 
     40 CA         28.1422   31.0457    1.0241 C.3       6 UNK         0.0367 
     41 CB         28.7905   32.4012    0.6980 C.3       6 UNK        -0.1929 
     42 C          28.4743   30.6305    2.4703 C.2       6 UNK         0.5070 
     43 O          27.7680   31.0488    3.3886 O.2       6 UNK        -0.5237 
     44 N          29.5373   29.8246    2.6354 N.am      7 UNK        -0.4739 
     45 CA         30.1230   29.3664    3.9009 C.3       7 UNK         0.0276 
     46 CB         29.1687   28.3855    4.6175 C.3       7 UNK        -0.1927 
     47 C          30.5918   30.5466    4.7796 C.2       7 UNK         0.5013 
     48 O          30.9697   31.5884    4.2346 O.2       7 UNK        -0.5193 
     49 N          30.5885   30.3644    6.1098 N.am      8 UNK        -0.4253 
     50 CA         30.9625   31.3452    7.1378 C.3       8 UNK         0.0242 
     51 CB         29.8716   32.4334    7.2619 C.3       8 UNK        -0.2000 
     52 C          32.3772   31.9047    6.9001 C.2       8 UNK         0.4948 
     53 O          33.3494   31.1850    7.1272 O.2       8 UNK        -0.5275 
     54 N          32.4715   33.1423    6.3935 N.am      9 UNK        -0.4246 
     55 CA         33.7162   33.7983    5.9834 C.3       9 UNK         0.0261 
     56 CB         33.4111   35.2381    5.5406 C.3       9 UNK        -0.1959 
     57 C          34.4848   33.0467    4.8797 C.2       9 UNK         0.5033 
     58 O          35.7150   33.1093    4.8648 O.2       9 UNK        -0.5390 
     59 N          33.7722   32.3116    4.0102 N.am      10 UNK        -0.4215 
     60 CA         34.3680   31.4415    2.9892 C.3       10 UNK         0.0240 
     61 CB         33.2963   31.0237    1.9677 C.3       10 UNK        -0.1982 
     62 C          35.0646   30.1993    3.5773 C.2       10 UNK         0.4970 
     63 O          35.8834   29.5962    2.8829 O.2       10 UNK        -0.4916 
     64 N          34.7433   29.8444    4.8287 N.am      11 UNK        -0.4279 
     65 CA         35.3857   28.7649    5.5905 C.3       11 UNK         0.1003 
     66 C          36.5891   29.2519    6.4497 C.2       11 UNK         0.5709 
     67 N          36.9625   30.5276    6.4268 N.am      11 UNK        -0.7358 
     68 O          37.2156   28.4496    7.1381 O.2       11 UNK        -0.4999 
     69 C69        34.3585   27.9608    6.4366 C.3       12 UNK        -0.0954 
     70 S70        32.9669   27.3223    5.4452 S.3       12 UNK        -0.2268 
     71 C71        33.7375   25.8426    4.7186 C.3       12 UNK         0.0203 
     72 H72        28.0013   18.4374    3.4521 H         1 UNK         0.0888 
     73 H73        26.6877   19.3844    4.1559 H         1 UNK         0.0888 
     74 H74        28.3329   20.0231    4.1508 H         1 UNK         0.0888 
     75 H75        28.6293   21.5920    2.5856 H         1 UNK         0.3017 
     76 H76        27.8669   21.2188   -0.1565 H         1 UNK         0.0873 
     77 H77        28.8271   23.5502   -0.4553 H         1 UNK         0.0745 
     78 H78        29.0653   23.6577    1.2679 H         1 UNK         0.0745 
     79 H79        30.7673   22.2336    2.6126 H         1 UNK         0.0705 
     80 H80        32.2687   21.7329    1.8792 H         1 UNK         0.0705 
     81 H81        32.5032   23.5179    4.0040 H         1 UNK         0.1334 
     82 H82        33.6272   27.3538    2.4553 H         1 UNK         0.1417 
     83 H83        31.7054   24.5113   -0.0975 H         1 UNK         0.1562 
     84 H84        32.6867   26.5144   -1.0484 H         1 UNK         0.0748 
     85 H85        33.6513   27.5759   -0.0550 H         1 UNK         0.0748 
     86 H86        29.5526   26.7315    0.6606 H         1 UNK         0.0940 
     87 H87        30.2193   26.2952   -0.8885 H         1 UNK         0.0940 
     88 H88        29.1386   28.4185   -1.8858 H         1 UNK         0.0703 
     89 H89        26.9506   26.7771   -0.9255 H         1 UNK         0.3081 
     90 H90        26.1773   25.7982   -4.0617 H         1 UNK         0.0719 
     91 H91        27.5940   23.5639   -2.5258 H         1 UNK         0.0809 
     92 H92        26.2577   23.3160   -3.6490 H         1 UNK         0.0809 
     93 H93        27.7854   23.9633   -4.2225 H         1 UNK         0.0809 
     94 H94        25.4242   24.5497   -1.5653 H         1 UNK         0.2990 
     95 H95        23.4355   27.0969   -0.3437 H         1 UNK         0.0690 
     96 H96        21.2914   25.9865   -0.9419 H         1 UNK         0.0788 
     97 H97        22.0776   25.1378   -2.2744 H         1 UNK         0.0788 
     98 H98        21.9160   26.8878   -2.3112 H         1 UNK         0.0788 
     99 H99        23.0794   24.2352   -0.2161 H         1 UNK         0.2993 
    100 H100       24.4740   24.0093    2.8475 H         1 UNK         0.0949 
    101 H101       22.4463   23.1749    1.6452 H         1 UNK         0.0767 
    102 H102       23.4651   22.3242    0.4818 H         1 UNK         0.0767 
    103 H103       23.4660   21.8523    2.1733 H         1 UNK         0.0767 
    104 H104       26.3579   22.8598    2.5447 H         1 UNK         0.3013 
    105 H105       29.4522   30.2370   -0.4370 H         1 UNK         0.3121 
    106 H106       27.0580   31.1554    0.9484 H         1 UNK         0.0774 
    107 H107       28.5243   32.7399   -0.3033 H         1 UNK         0.0815 
    108 H108       29.8786   32.3552    0.7621 H         1 UNK         0.0815 
    109 H109       28.4574   33.1687    1.3982 H         1 UNK         0.0815 
    110 H110       30.0481   29.5579    1.8052 H         1 UNK         0.2987 
    111 H111       31.0233   28.8126    3.6308 H         1 UNK         0.0949 
    112 H112       28.2934   28.8932    5.0248 H         1 UNK         0.0806 
    113 H113       28.8145   27.6148    3.9324 H         1 UNK         0.0806 
    114 H114       29.6685   27.8690    5.4376 H         1 UNK         0.0806 
    115 H115       30.3086   29.4583    6.4574 H         1 UNK         0.3010 
    116 H116       31.0035   30.8078    8.0866 H         1 UNK         0.0829 
    117 H117       28.9200   31.9944    7.5621 H         1 UNK         0.0813 
    118 H118       30.1339   33.1719    8.0208 H         1 UNK         0.0813 
    119 H119       29.7012   32.9628    6.3237 H         1 UNK         0.0813 
    120 H120       31.6130   33.6380    6.2007 H         1 UNK         0.3038 
    121 H121       34.3663   33.8397    6.8598 H         1 UNK         0.0769 
    122 H122       32.7383   35.2628    4.6824 H         1 UNK         0.0811 
    123 H123       34.3253   35.7595    5.2530 H         1 UNK         0.0811 
    124 H124       32.9525   35.8131    6.3453 H         1 UNK         0.0811 
    125 H125       32.7589   32.2709    4.1076 H         1 UNK         0.3204 
    126 H126       35.1282   32.0209    2.4609 H         1 UNK         0.0748 
    127 H127       32.7751   31.8881    1.5562 H         1 UNK         0.0771 
    128 H128       33.7451   30.4865    1.1310 H         1 UNK         0.0771 
    129 H129       32.5529   30.3613    2.4089 H         1 UNK         0.0771 
    130 H130       34.0945   30.4112    5.3623 H         1 UNK         0.2980 
    131 H131       35.8261   28.0638    4.8807 H         1 UNK         0.0545 
    132 H132       37.7490   30.8174    6.9857 H         1 UNK         0.3459 
    133 H133       36.4707   31.2053    5.8611 H         1 UNK         0.3459 
    134 H134       34.8409   27.1186    6.9360 H         1 UNK         0.0616 
    135 H135       33.9461   28.5861    7.2296 H         1 UNK         0.0616 
    136 H136       33.6535   25.0196    5.4299 H         1 UNK         0.0634 
    137 H137       34.8038   26.0088    4.5655 H         1 UNK         0.0634 
@<TRIPOS>BOND
     1    1    2 1    
     2    1   72 1    
     3    1   73 1    
     4    1   74 1    
     5    2    3 2    
     6    2    4 am   BACKBONE|DICT|INTERRES
     7    4    5 1    
     8    4   75 1    
     9    5    6 1    
    10    5   35 1    
    11    5   76 1    
    12    6    7 1    
    13    6   77 1    
    14    6   78 1    
    15    7    8 1    
    16    8    9 1    
    17    8   79 1    
    18    8   80 1    
    19    9   10 ar   
    20    9   14 ar   
    21   10   11 ar   
    22   10   81 1    
    23   11   12 ar   
    24   11   71 1    
    25   12   13 ar   
    26   12   82 1    
    27   13   14 ar   
    28   13   15 1    
    29   14   83 1    
    30   15   16 1    
    31   15   84 1    
    32   15   85 1    
    33   16   17 1    
    34   17   18 1    
    35   17   86 1    
    36   17   87 1    
    37   18   19 1    
    38   18   37 1    
    39   18   88 1    
    40   19   20 am   BACKBONE|DICT|INTERRES
    41   19   89 1    
    42   20   21 2    
    43   20   22 1    
    44   22   23 1    
    45   22   24 1    
    46   22   90 1    
    47   23   91 1    
    48   23   92 1    
    49   23   93 1    
    50   24   25 am   BACKBONE|DICT|INTERRES
    51   24   94 1    
    52   25   26 2    
    53   25   27 1    
    54   27   28 1    
    55   27   29 1    
    56   27   95 1    
    57   28   96 1    
    58   28   97 1    
    59   28   98 1    
    60   29   30 am   BACKBONE|DICT|INTERRES
    61   29   99 1    
    62   30   31 2    
    63   30   32 1    
    64   32   33 1    
    65   32   34 1    
    66   32  100 1    
    67   33  101 1    
    68   33  102 1    
    69   33  103 1    
    70   34   35 am   BACKBONE|DICT|INTERRES
    71   34  104 1    
    72   35   36 2    
    73   37   38 2    
    74   37   39 am   BACKBONE|DICT|INTERRES
    75   39   40 1    
    76   39  105 1    
    77   40   41 1    
    78   40   42 1    
    79   40  106 1    
    80   41  107 1    
    81   41  108 1    
    82   41  109 1    
    83   42   43 2    
    84   42   44 am   BACKBONE|DICT|INTERRES
    85   44   45 1    
    86   44  110 1    
    87   45   46 1    
    88   45   47 1    
    89   45  111 1    
    90   46  112 1    
    91   46  113 1    
    92   46  114 1    
    93   47   48 2    
    94   47   49 am   BACKBONE|DICT|INTERRES
    95   49   50 1    
    96   49  115 1    
    97   50   51 1    
    98   50   52 1    
    99   50  116 1    
   100   51  117 1    
   101   51  118 1    
   102   51  119 1    
   103   52   53 2    
   104   52   54 am   BACKBONE|DICT|INTERRES
   105   54   55 1    
   106   54  120 1    
   107   55   56 1    
   108   55   57 1    
   109   55  121 1    
   110   56  122 1    
   111   56  123 1    
   112   56  124 1    
   113   57   58 2    
   114   57   59 am   BACKBONE|DICT|INTERRES
   115   59   60 1    
   116   59  125 1    
   117   60   61 1    
   118   60   62 1    
   119   60  126 1    
   120   61  127 1    
   121   61  128 1    
   122   61  129 1    
   123   62   63 2    
   124   62   64 am   BACKBONE|DICT|INTERRES
   125   64   65 1    
   126   64  130 1    
   127   65   66 1    
   128   65   69 1    
   129   65  131 1    
   130   66   67 am   BACKBONE|DICT|INTERRES
   131   66   68 2    
   132   67  132 1    
   133   67  133 1    
   134   69   70 1    
   135   69  134 1    
   136   69  135 1    
   137   70   71 1    
   138   71  136 1    
   139   71  137 1    
@<TRIPOS>SUBSTRUCTURE
     1 UNK         1 GROUP             0       ****    0 ROOT    
