@<TRIPOS>MOLECULE
3R136
137   139    1
SMALL
USER_CHARGES


@<TRIPOS>ATOM
      1 CA         26.3256   19.7029    0.6610 C.3       0 UNK        -0.1979 
      2 C          27.6873   20.3374    0.4187 C.2       0 UNK         0.4864 
      3 O          28.6811   19.8910    0.9938 O.2       0 UNK        -0.5359 
      4 N          27.7399   21.3712   -0.4271 N.am      1 UNK        -0.4318 
      5 CA         28.9482   22.0939   -0.8189 C.3       1 UNK         0.0824 
      6 C6         29.4789   23.0308    0.3011 C.3       12 UNK        -0.0944 
      7 S7         31.2929   23.2287    0.2339 S.3       12 UNK        -0.2672 
      8 C8         31.8083   22.4628    1.8040 C.3       12 UNK         0.0333 
      9 C9         31.5481   23.3898    2.9824 C.ar      12 UNK        -0.0807 
     10 C10        32.4806   24.3750    3.3169 C.ar      12 UNK        -0.0894 
     11 C11        32.2418   25.2458    4.3839 C.ar      12 UNK        -0.0804 
     12 C12        31.0549   25.1341    5.1160 C.ar      12 UNK        -0.0824 
     13 C13        30.1167   24.1491    4.7910 C.ar      12 UNK        -0.0762 
     14 C14        30.3755   23.2727    3.7335 C.ar      12 UNK        -0.0782 
     15 C15        28.8196   24.0164    5.5727 C.3       12 UNK         0.0230 
     16 S16        27.4416   24.8532    4.7233 S.3       12 UNK        -0.2608 
     17 C17        27.5484   26.5512    5.3846 C.3       12 UNK        -0.0989 
     18 CA         27.9146   27.6189    4.3224 C.3       5 UNK         0.0716 
     19 N          26.9913   27.6069    3.1812 N.am      5 UNK        -0.4135 
     20 C          27.0344   28.4196    2.1163 C.2       4 UNK         0.5031 
     21 O          27.8547   29.3287    1.9614 O.2       4 UNK        -0.5229 
     22 CA         25.9564   28.1969    1.0420 C.3       4 UNK         0.0329 
     23 CB         24.9133   29.3245    1.0948 C.3       4 UNK        -0.2001 
     24 N          26.5174   28.1283   -0.3111 N.am      4 UNK        -0.4303 
     25 C          27.3714   27.1901   -0.7407 C.2       3 UNK         0.5044 
     26 O          27.7831   26.2627   -0.0398 O.2       3 UNK        -0.5152 
     27 CA         27.8284   27.2961   -2.2036 C.3       3 UNK         0.0319 
     28 CB         28.6658   28.5636   -2.4585 C.3       3 UNK        -0.2001 
     29 N          28.6104   26.1095   -2.5389 N.am      3 UNK        -0.4354 
     30 C          28.7856   25.6074   -3.7670 C.2       2 UNK         0.4964 
     31 O          28.3268   26.1240   -4.7869 O.2       2 UNK        -0.5047 
     32 CA         29.6164   24.3159   -3.8960 C.3       2 UNK         0.0288 
     33 CB         31.0474   24.6449   -4.3532 C.3       2 UNK        -0.2113 
     34 N          29.6826   23.5203   -2.6664 N.am      2 UNK        -0.4145 
     35 C          28.6568   22.8473   -2.1296 C.2       1 UNK         0.5006 
     36 O          27.5249   22.8132   -2.6238 O.2       1 UNK        -0.5103 
     37 C          27.9604   29.0045    4.9952 C.2       5 UNK         0.5055 
     38 O          26.9041   29.5440    5.3344 O.2       5 UNK        -0.5220 
     39 N          29.1714   29.5485    5.1697 N.am      6 UNK        -0.4450 
     40 CA         29.5313   30.8415    5.7708 C.3       6 UNK         0.0367 
     41 CB         29.0553   30.9430    7.2327 C.3       6 UNK        -0.1929 
     42 C          29.0949   32.0728    4.9563 C.2       6 UNK         0.5070 
     43 O          29.8540   33.0386    4.8812 O.2       6 UNK        -0.5237 
     44 N          27.8995   32.0241    4.3572 N.am      7 UNK        -0.4739 
     45 CA         27.3302   33.0682    3.5040 C.3       7 UNK         0.0276 
     46 CB         25.8514   32.7472    3.2366 C.3       7 UNK        -0.1927 
     47 C          28.0915   33.2518    2.1805 C.2       7 UNK         0.5013 
     48 O          28.1769   34.3787    1.6901 O.2       7 UNK        -0.5193 
     49 N          28.6285   32.1537    1.6354 N.am      8 UNK        -0.4253 
     50 CA         29.4234   32.1341    0.4096 C.3       8 UNK         0.0242 
     51 CB         28.5287   31.7527   -0.7793 C.3       8 UNK        -0.2000 
     52 C          30.6198   31.1862    0.5528 C.2       8 UNK         0.4948 
     53 O          31.7514   31.5997    0.2963 O.2       8 UNK        -0.5275 
     54 N          30.3663   29.9457    0.9894 N.am      9 UNK        -0.4246 
     55 CA         31.3899   28.9590    1.3238 C.3       9 UNK         0.0261 
     56 CB         30.8256   27.5404    1.1143 C.3       9 UNK        -0.1959 
     57 C          31.8387   29.1924    2.7719 C.2       9 UNK         0.5033 
     58 O          31.2806   28.5873    3.6880 O.2       9 UNK        -0.5390 
     59 N          32.7969   30.1043    2.9623 N.am      10 UNK        -0.4215 
     60 CA         33.4141   30.3974    4.2550 C.3       10 UNK         0.0240 
     61 CB         33.6835   31.9070    4.3574 C.3       10 UNK        -0.1982 
     62 C          34.7162   29.5975    4.3897 C.2       10 UNK         0.4970 
     63 O          35.4907   29.5377    3.4318 O.2       10 UNK        -0.4916 
     64 N          34.9325   29.0074    5.5692 N.am      11 UNK        -0.4279 
     65 CA         36.0901   28.1552    5.8851 C.3       11 UNK         0.1003 
     66 C          36.4617   28.1376    7.3964 C.2       11 UNK         0.5709 
     67 N          35.9373   29.0399    8.2192 N.am      11 UNK        -0.7358 
     68 O          37.2593   27.3111    7.8333 O.2       11 UNK        -0.4999 
     69 C69        35.9919   26.7434    5.2339 C.3       12 UNK        -0.0954 
     70 S70        34.5822   25.7228    5.7948 S.3       12 UNK        -0.2268 
     71 C71        33.2546   26.3291    4.7110 C.3       12 UNK         0.0203 
     72 H72        26.3434   18.6531    0.3691 H         1 UNK         0.0888 
     73 H73        26.0687   19.7590    1.7185 H         1 UNK         0.0888 
     74 H74        25.5382   20.1995    0.0941 H         1 UNK         0.0888 
     75 H75        26.9127   21.6776   -0.9264 H         1 UNK         0.3017 
     76 H76        29.7035   21.3397   -1.0519 H         1 UNK         0.0873 
     77 H77        29.0092   24.0141    0.2672 H         1 UNK         0.0745 
     78 H78        29.2110   22.6294    1.2763 H         1 UNK         0.0745 
     79 H79        32.8729   22.2306    1.7493 H         1 UNK         0.0705 
     80 H80        31.2952   21.5086    1.9370 H         1 UNK         0.0705 
     81 H81        33.3898   24.4714    2.7390 H         1 UNK         0.1334 
     82 H82        30.8608   25.8168    5.9317 H         1 UNK         0.1417 
     83 H83        29.6513   22.5080    3.4885 H         1 UNK         0.1562 
     84 H84        28.9337   24.3957    6.5892 H         1 UNK         0.0748 
     85 H85        28.5690   22.9597    5.6780 H         1 UNK         0.0748 
     86 H86        28.2703   26.5755    6.2030 H         1 UNK         0.0940 
     87 H87        26.5821   26.7829    5.8382 H         1 UNK         0.0940 
     88 H88        28.9058   27.3828    3.9309 H         1 UNK         0.0703 
     89 H89        26.2783   26.8940    3.2168 H         1 UNK         0.3081 
     90 H90        25.4509   27.2491    1.2394 H         1 UNK         0.0719 
     91 H91        25.3518   30.2895    0.8368 H         1 UNK         0.0809 
     92 H92        24.0891   29.1362    0.4066 H         1 UNK         0.0809 
     93 H93        24.4850   29.4168    2.0940 H         1 UNK         0.0809 
     94 H94        26.2411   28.8604   -0.9482 H         1 UNK         0.2990 
     95 H95        26.9357   27.3162   -2.8325 H         1 UNK         0.0690 
     96 H96        29.1346   28.5470   -3.4424 H         1 UNK         0.0788 
     97 H97        29.4552   28.6878   -1.7162 H         1 UNK         0.0788 
     98 H98        28.0352   29.4506   -2.4314 H         1 UNK         0.0788 
     99 H99        28.9577   25.6035   -1.7338 H         1 UNK         0.2993 
    100 H100       29.1419   23.7046   -4.6669 H         1 UNK         0.0949 
    101 H101       31.5802   25.2424   -3.6121 H         1 UNK         0.0767 
    102 H102       31.6253   23.7381   -4.5337 H         1 UNK         0.0767 
    103 H103       31.0395   25.2124   -5.2850 H         1 UNK         0.0767 
    104 H104       30.5683   23.5086   -2.1773 H         1 UNK         0.3013 
    105 H105       29.9612   29.0587    4.7423 H         1 UNK         0.3121 
    106 H106       30.6213   30.8580    5.7853 H         1 UNK         0.0774 
    107 H107       29.4280   31.8563    7.6982 H         1 UNK         0.0815 
    108 H108       27.9679   30.9638    7.3096 H         1 UNK         0.0815 
    109 H109       29.4185   30.1048    7.8272 H         1 UNK         0.0815 
    110 H110       27.3372   31.1921    4.5184 H         1 UNK         0.2987 
    111 H111       27.3854   34.0138    4.0478 H         1 UNK         0.0949 
    112 H112       25.3946   33.5049    2.5983 H         1 UNK         0.0806 
    113 H113       25.7335   31.7844    2.7391 H         1 UNK         0.0806 
    114 H114       25.2787   32.7166    4.1637 H         1 UNK         0.0806 
    115 H115       28.4756   31.2606    2.0928 H         1 UNK         0.3010 
    116 H116       29.8358   33.1279    0.2207 H         1 UNK         0.0829 
    117 H117       27.7912   32.5300   -0.9798 H         1 UNK         0.0813 
    118 H118       29.1156   31.6180   -1.6889 H         1 UNK         0.0813 
    119 H119       27.9879   30.8271   -0.5841 H         1 UNK         0.0813 
    120 H120       29.4098   29.6913    1.2361 H         1 UNK         0.3038 
    121 H121       32.2538   29.0751    0.6658 H         1 UNK         0.0769 
    122 H122       29.9227   27.3669    1.6998 H         1 UNK         0.0811 
    123 H123       31.5514   26.7824    1.4119 H         1 UNK         0.0811 
    124 H124       30.5808   27.3599    0.0681 H         1 UNK         0.0811 
    125 H125       33.1992   30.5620    2.1549 H         1 UNK         0.3204 
    126 H126       32.7394   30.1160    5.0654 H         1 UNK         0.0748 
    127 H127       34.1347   32.1599    5.3177 H         1 UNK         0.0771 
    128 H128       34.3620   32.2522    3.5760 H         1 UNK         0.0771 
    129 H129       32.7584   32.4785    4.2738 H         1 UNK         0.0771 
    130 H130       34.2454   29.0898    6.3042 H         1 UNK         0.2980 
    131 H131       36.9578   28.6386    5.4324 H         1 UNK         0.0545 
    132 H132       35.3450   29.7808    7.8828 H         1 UNK         0.3459 
    133 H133       36.1972   29.0141    9.1929 H         1 UNK         0.3459 
    134 H134       36.9054   26.1791    5.4285 H         1 UNK         0.0616 
    135 H135       35.9506   26.8364    4.1480 H         1 UNK         0.0616 
    136 H136       33.6676   26.7244    3.7822 H         1 UNK         0.0634 
    137 H137       32.7640   27.1631    5.2123 H         1 UNK         0.0634 
@<TRIPOS>BOND
     1    1    2 1    
     2    1   72 1    
     3    1   73 1    
     4    1   74 1    
     5    2    3 2    
     6    2    4 am   BACKBONE|DICT|INTERRES
     7    4    5 1    
     8    4   75 1    
     9    5    6 1    
    10    5   35 1    
    11    5   76 1    
    12    6    7 1    
    13    6   77 1    
    14    6   78 1    
    15    7    8 1    
    16    8    9 1    
    17    8   79 1    
    18    8   80 1    
    19    9   10 ar   
    20    9   14 ar   
    21   10   11 ar   
    22   10   81 1    
    23   11   12 ar   
    24   11   71 1    
    25   12   13 ar   
    26   12   82 1    
    27   13   14 ar   
    28   13   15 1    
    29   14   83 1    
    30   15   16 1    
    31   15   84 1    
    32   15   85 1    
    33   16   17 1    
    34   17   18 1    
    35   17   86 1    
    36   17   87 1    
    37   18   19 1    
    38   18   37 1    
    39   18   88 1    
    40   19   20 am   BACKBONE|DICT|INTERRES
    41   19   89 1    
    42   20   21 2    
    43   20   22 1    
    44   22   23 1    
    45   22   24 1    
    46   22   90 1    
    47   23   91 1    
    48   23   92 1    
    49   23   93 1    
    50   24   25 am   BACKBONE|DICT|INTERRES
    51   24   94 1    
    52   25   26 2    
    53   25   27 1    
    54   27   28 1    
    55   27   29 1    
    56   27   95 1    
    57   28   96 1    
    58   28   97 1    
    59   28   98 1    
    60   29   30 am   BACKBONE|DICT|INTERRES
    61   29   99 1    
    62   30   31 2    
    63   30   32 1    
    64   32   33 1    
    65   32   34 1    
    66   32  100 1    
    67   33  101 1    
    68   33  102 1    
    69   33  103 1    
    70   34   35 am   BACKBONE|DICT|INTERRES
    71   34  104 1    
    72   35   36 2    
    73   37   38 2    
    74   37   39 am   BACKBONE|DICT|INTERRES
    75   39   40 1    
    76   39  105 1    
    77   40   41 1    
    78   40   42 1    
    79   40  106 1    
    80   41  107 1    
    81   41  108 1    
    82   41  109 1    
    83   42   43 2    
    84   42   44 am   BACKBONE|DICT|INTERRES
    85   44   45 1    
    86   44  110 1    
    87   45   46 1    
    88   45   47 1    
    89   45  111 1    
    90   46  112 1    
    91   46  113 1    
    92   46  114 1    
    93   47   48 2    
    94   47   49 am   BACKBONE|DICT|INTERRES
    95   49   50 1    
    96   49  115 1    
    97   50   51 1    
    98   50   52 1    
    99   50  116 1    
   100   51  117 1    
   101   51  118 1    
   102   51  119 1    
   103   52   53 2    
   104   52   54 am   BACKBONE|DICT|INTERRES
   105   54   55 1    
   106   54  120 1    
   107   55   56 1    
   108   55   57 1    
   109   55  121 1    
   110   56  122 1    
   111   56  123 1    
   112   56  124 1    
   113   57   58 2    
   114   57   59 am   BACKBONE|DICT|INTERRES
   115   59   60 1    
   116   59  125 1    
   117   60   61 1    
   118   60   62 1    
   119   60  126 1    
   120   61  127 1    
   121   61  128 1    
   122   61  129 1    
   123   62   63 2    
   124   62   64 am   BACKBONE|DICT|INTERRES
   125   64   65 1    
   126   64  130 1    
   127   65   66 1    
   128   65   69 1    
   129   65  131 1    
   130   66   67 am   BACKBONE|DICT|INTERRES
   131   66   68 2    
   132   67  132 1    
   133   67  133 1    
   134   69   70 1    
   135   69  134 1    
   136   69  135 1    
   137   70   71 1    
   138   71  136 1    
   139   71  137 1    
@<TRIPOS>SUBSTRUCTURE
     1 UNK         1 GROUP             0       ****    0 ROOT    
