@<TRIPOS>MOLECULE
3R136
137   139    1
SMALL
USER_CHARGES


@<TRIPOS>ATOM
      1 CA         32.3223   25.4189   -3.1924 C.3       0 UNK        -0.1979 
      2 C          31.8758   24.8498   -1.8537 C.2       0 UNK         0.4864 
      3 O          32.4272   25.2258   -0.8202 O.2       0 UNK        -0.5359 
      4 N          30.8824   23.9551   -1.8738 N.am      1 UNK        -0.4318 
      5 CA         30.2537   23.3375   -0.7052 C.3       1 UNK         0.0824 
      6 C6         30.7189   21.8728   -0.4888 C.3       12 UNK        -0.0944 
      7 S7         32.4783   21.7290   -0.0326 S.3       12 UNK        -0.2672 
      8 C8         32.3749   21.3569    1.7468 C.3       12 UNK         0.0333 
      9 C9         31.9786   22.5787    2.5639 C.ar      12 UNK        -0.0807 
     10 C10        32.9418   23.5342    2.8986 C.ar      12 UNK        -0.0894 
     11 C11        32.6026   24.6439    3.6775 C.ar      12 UNK        -0.0804 
     12 C12        31.2821   24.8055    4.1100 C.ar      12 UNK        -0.0824 
     13 C13        30.3117   23.8492    3.7912 C.ar      12 UNK        -0.0762 
     14 C14        30.6653   22.7390    3.0165 C.ar      12 UNK        -0.0782 
     15 C15        28.8925   23.9843    4.3213 C.3       12 UNK         0.0230 
     16 S16        27.8175   24.8717    3.1489 S.3       12 UNK        -0.2608 
     17 C17        27.3785   26.3905    4.0569 C.3       12 UNK        -0.0989 
     18 CA         27.8801   27.6573    3.3288 C.3       5 UNK         0.0716 
     19 N          27.2108   27.8686    2.0373 N.am      5 UNK        -0.4135 
     20 C          27.4947   28.8628    1.1832 C.2       4 UNK         0.5031 
     21 O          28.4201   29.6618    1.3499 O.2       4 UNK        -0.5229 
     22 CA         26.6026   28.9889   -0.0590 C.3       4 UNK         0.0329 
     23 CB         27.1394   30.0131   -1.0816 C.3       4 UNK        -0.2001 
     24 N          26.4091   27.6898   -0.7047 N.am      4 UNK        -0.4303 
     25 C          25.3497   27.3763   -1.4620 C.2       3 UNK         0.5044 
     26 O          24.3912   28.1288   -1.6434 O.2       3 UNK        -0.5152 
     27 CA         25.3569   26.0047   -2.1587 C.3       3 UNK         0.0319 
     28 CB         25.9540   26.1278   -3.5699 C.3       3 UNK        -0.2001 
     29 N          26.0692   24.9516   -1.4321 N.am      3 UNK        -0.4354 
     30 C          25.6957   24.4243   -0.2608 C.2       2 UNK         0.4964 
     31 O          24.7462   24.8415    0.4025 O.2       2 UNK        -0.5047 
     32 CA         26.4965   23.2152    0.2573 C.3       2 UNK         0.0288 
     33 CB         25.9928   21.9073   -0.3851 C.3       2 UNK        -0.2113 
     34 N          27.9616   23.3301    0.1580 N.am      2 UNK        -0.4145 
     35 C          28.7338   23.3653   -0.9376 C.2       1 UNK         0.5006 
     36 O          28.2943   23.3857   -2.0920 O.2       1 UNK        -0.5103 
     37 C          27.7175   28.8946    4.2316 C.2       5 UNK         0.5055 
     38 O          26.5967   29.3841    4.3895 O.2       5 UNK        -0.5220 
     39 N          28.8409   29.3975    4.7588 N.am      6 UNK        -0.4450 
     40 CA         29.0219   30.6229    5.5520 C.3       6 UNK         0.0367 
     41 CB         28.1964   30.5894    6.8526 C.3       6 UNK        -0.1929 
     42 C          28.7864   31.9341    4.7754 C.2       6 UNK         0.5070 
     43 O          29.4774   32.9157    5.0463 O.2       6 UNK        -0.5237 
     44 N          27.8407   31.9376    3.8267 N.am      7 UNK        -0.4739 
     45 CA         27.5177   33.0621    2.9446 C.3       7 UNK         0.0276 
     46 CB         26.2308   32.7440    2.1664 C.3       7 UNK        -0.1927 
     47 C          28.6619   33.4190    1.9806 C.2       7 UNK         0.5013 
     48 O          28.9043   34.6036    1.7455 O.2       7 UNK        -0.5193 
     49 N          29.3482   32.3942    1.4620 N.am      8 UNK        -0.4253 
     50 CA         30.5487   32.5217    0.6361 C.3       8 UNK         0.0242 
     51 CB         30.1867   32.4129   -0.8546 C.3       8 UNK        -0.2000 
     52 C          31.5871   31.4676    1.0349 C.2       8 UNK         0.4948 
     53 O          32.7583   31.8074    1.2091 O.2       8 UNK        -0.5275 
     54 N          31.1469   30.2139    1.2057 N.am      9 UNK        -0.4246 
     55 CA         31.9638   29.1013    1.6802 C.3       9 UNK         0.0261 
     56 CB         31.4117   27.7841    1.1058 C.3       9 UNK        -0.1959 
     57 C          31.9923   29.1103    3.2144 C.2       9 UNK         0.5033 
     58 O          31.2688   28.3430    3.8527 O.2       9 UNK        -0.5390 
     59 N          32.7968   30.0115    3.7832 N.am      10 UNK        -0.4215 
     60 CA         33.0871   30.0725    5.2124 C.3       10 UNK         0.0240 
     61 CB         33.1755   31.5432    5.6520 C.3       10 UNK        -0.1982 
     62 C          34.4102   29.3400    5.4638 C.2       10 UNK         0.4970 
     63 O          35.4030   29.6483    4.8001 O.2       10 UNK        -0.4916 
     64 N          34.4009   28.3923    6.4046 N.am      11 UNK        -0.4279 
     65 CA         35.5618   27.5648    6.7678 C.3       11 UNK         0.1003 
     66 C          35.5785   27.1267    8.2613 C.2       11 UNK         0.5709 
     67 N          34.7498   27.6970    9.1295 N.am      11 UNK        -0.7358 
     68 O          36.3732   26.2747    8.6522 O.2       11 UNK        -0.4999 
     69 C69        35.8025   26.4050    5.7587 C.3       12 UNK        -0.0954 
     70 S70        34.4342   25.1992    5.6582 S.3       12 UNK        -0.2268 
     71 C71        33.6741   25.6491    4.0686 C.3       12 UNK         0.0203 
     72 H72        33.3757   25.1964   -3.3607 H         1 UNK         0.0888 
     73 H73        31.7514   25.0047   -4.0233 H         1 UNK         0.0888 
     74 H74        32.1966   26.5013   -3.2001 H         1 UNK         0.0888 
     75 H75        30.4186   23.7332   -2.7455 H         1 UNK         0.3017 
     76 H76        30.4692   23.9269    0.1895 H         1 UNK         0.0873 
     77 H77        30.1191   21.3835    0.2807 H         1 UNK         0.0745 
     78 H78        30.5635   21.2883   -1.3979 H         1 UNK         0.0745 
     79 H79        33.3490   20.9993    2.0840 H         1 UNK         0.0705 
     80 H80        31.6794   20.5328    1.9133 H         1 UNK         0.0705 
     81 H81        33.9616   23.4058    2.5619 H         1 UNK         0.1334 
     82 H82        31.0174   25.6644    4.7123 H         1 UNK         0.1417 
     83 H83        29.9210   21.9906    2.7808 H         1 UNK         0.1562 
     84 H84        28.9057   24.4677    5.2983 H         1 UNK         0.0748 
     85 H85        28.4685   22.9938    4.4934 H         1 UNK         0.0748 
     86 H86        27.7864   26.3457    5.0680 H         1 UNK         0.0940 
     87 H87        26.2937   26.4208    4.1774 H         1 UNK         0.0940 
     88 H88        28.9414   27.5222    3.1231 H         1 UNK         0.0703 
     89 H89        26.4252   27.2663    1.8399 H         1 UNK         0.3081 
     90 H90        25.6392   29.3501    0.3071 H         1 UNK         0.0719 
     91 H91        28.0964   29.6961   -1.4967 H         1 UNK         0.0809 
     92 H92        26.4455   30.1507   -1.9108 H         1 UNK         0.0809 
     93 H93        27.2850   30.9925   -0.6244 H         1 UNK         0.0809 
     94 H94        27.1514   27.0123   -0.5991 H         1 UNK         0.2990 
     95 H95        24.3165   25.6877   -2.2576 H         1 UNK         0.0690 
     96 H96        25.8743   25.1886   -4.1178 H         1 UNK         0.0788 
     97 H97        27.0074   26.4096   -3.5389 H         1 UNK         0.0788 
     98 H98        25.4296   26.8868   -4.1525 H         1 UNK         0.0788 
     99 H99        26.8576   24.5120   -1.9026 H         1 UNK         0.2993 
    100 H100       26.2795   23.1442    1.3241 H         1 UNK         0.0949 
    101 H101       26.1551   21.8900   -1.4633 H         1 UNK         0.0767 
    102 H102       26.4924   21.0381    0.0430 H         1 UNK         0.0767 
    103 H103       24.9223   21.7797   -0.2182 H         1 UNK         0.0767 
    104 H104       28.4253   23.3893    1.0547 H         1 UNK         0.3013 
    105 H105       29.7149   28.9344    4.5016 H         1 UNK         0.3121 
    106 H106       30.0742   30.6255    5.8380 H         1 UNK         0.0774 
    107 H107       28.4368   31.4450    7.4849 H         1 UNK         0.0815 
    108 H108       27.1241   30.6247    6.6590 H         1 UNK         0.0815 
    109 H109       28.4046   29.6898    7.4317 H         1 UNK         0.0815 
    110 H110       27.2904   31.0909    3.7225 H         1 UNK         0.2987 
    111 H111       27.3327   33.9362    3.5728 H         1 UNK         0.0949 
    112 H112       25.9605   33.5680    1.5046 H         1 UNK         0.0806 
    113 H113       26.3411   31.8520    1.5493 H         1 UNK         0.0806 
    114 H114       25.3899   32.5819    2.8410 H         1 UNK         0.0806 
    115 H115       29.0464   31.4509    1.6896 H         1 UNK         0.3010 
    116 H116       31.0069   33.4984    0.8077 H         1 UNK         0.0829 
    117 H117       29.4673   33.1789   -1.1446 H         1 UNK         0.0813 
    118 H118       31.0709   32.5439   -1.4796 H         1 UNK         0.0813 
    119 H119       29.7580   31.4408   -1.0967 H         1 UNK         0.0813 
    120 H120       30.1541   30.0141    1.0972 H         1 UNK         0.3038 
    121 H121       32.9892   29.2126    1.3207 H         1 UNK         0.0769 
    122 H122       30.3659   27.6267    1.3623 H         1 UNK         0.0811 
    123 H123       31.9709   26.9265    1.4833 H         1 UNK         0.0811 
    124 H124       31.4903   27.7664    0.0189 H         1 UNK         0.0811 
    125 H125       33.3488   30.6120    3.1828 H         1 UNK         0.3204 
    126 H126       32.2915   29.5918    5.7853 H         1 UNK         0.0748 
    127 H127       33.3793   31.6195    6.7208 H         1 UNK         0.0771 
    128 H128       33.9700   32.0770    5.1285 H         1 UNK         0.0771 
    129 H129       32.2400   32.0699    5.4614 H         1 UNK         0.0771 
    130 H130       33.5421   28.1702    6.8867 H         1 UNK         0.2980 
    131 H131       36.4390   28.2112    6.7028 H         1 UNK         0.0545 
    132 H132       34.7820   27.4039   10.0935 H         1 UNK         0.3459 
    133 H133       34.1393   28.4500    8.8586 H         1 UNK         0.3459 
    134 H134       36.7118   25.8604    6.0180 H         1 UNK         0.0616 
    135 H135       35.9926   26.8164    4.7665 H         1 UNK         0.0616 
    136 H136       34.4404   25.6980    3.2934 H         1 UNK         0.0634 
    137 H137       33.2481   26.6473    4.1489 H         1 UNK         0.0634 
@<TRIPOS>BOND
     1    1    2 1    
     2    1   72 1    
     3    1   73 1    
     4    1   74 1    
     5    2    3 2    
     6    2    4 am   BACKBONE|DICT|INTERRES
     7    4    5 1    
     8    4   75 1    
     9    5    6 1    
    10    5   35 1    
    11    5   76 1    
    12    6    7 1    
    13    6   77 1    
    14    6   78 1    
    15    7    8 1    
    16    8    9 1    
    17    8   79 1    
    18    8   80 1    
    19    9   10 ar   
    20    9   14 ar   
    21   10   11 ar   
    22   10   81 1    
    23   11   12 ar   
    24   11   71 1    
    25   12   13 ar   
    26   12   82 1    
    27   13   14 ar   
    28   13   15 1    
    29   14   83 1    
    30   15   16 1    
    31   15   84 1    
    32   15   85 1    
    33   16   17 1    
    34   17   18 1    
    35   17   86 1    
    36   17   87 1    
    37   18   19 1    
    38   18   37 1    
    39   18   88 1    
    40   19   20 am   BACKBONE|DICT|INTERRES
    41   19   89 1    
    42   20   21 2    
    43   20   22 1    
    44   22   23 1    
    45   22   24 1    
    46   22   90 1    
    47   23   91 1    
    48   23   92 1    
    49   23   93 1    
    50   24   25 am   BACKBONE|DICT|INTERRES
    51   24   94 1    
    52   25   26 2    
    53   25   27 1    
    54   27   28 1    
    55   27   29 1    
    56   27   95 1    
    57   28   96 1    
    58   28   97 1    
    59   28   98 1    
    60   29   30 am   BACKBONE|DICT|INTERRES
    61   29   99 1    
    62   30   31 2    
    63   30   32 1    
    64   32   33 1    
    65   32   34 1    
    66   32  100 1    
    67   33  101 1    
    68   33  102 1    
    69   33  103 1    
    70   34   35 am   BACKBONE|DICT|INTERRES
    71   34  104 1    
    72   35   36 2    
    73   37   38 2    
    74   37   39 am   BACKBONE|DICT|INTERRES
    75   39   40 1    
    76   39  105 1    
    77   40   41 1    
    78   40   42 1    
    79   40  106 1    
    80   41  107 1    
    81   41  108 1    
    82   41  109 1    
    83   42   43 2    
    84   42   44 am   BACKBONE|DICT|INTERRES
    85   44   45 1    
    86   44  110 1    
    87   45   46 1    
    88   45   47 1    
    89   45  111 1    
    90   46  112 1    
    91   46  113 1    
    92   46  114 1    
    93   47   48 2    
    94   47   49 am   BACKBONE|DICT|INTERRES
    95   49   50 1    
    96   49  115 1    
    97   50   51 1    
    98   50   52 1    
    99   50  116 1    
   100   51  117 1    
   101   51  118 1    
   102   51  119 1    
   103   52   53 2    
   104   52   54 am   BACKBONE|DICT|INTERRES
   105   54   55 1    
   106   54  120 1    
   107   55   56 1    
   108   55   57 1    
   109   55  121 1    
   110   56  122 1    
   111   56  123 1    
   112   56  124 1    
   113   57   58 2    
   114   57   59 am   BACKBONE|DICT|INTERRES
   115   59   60 1    
   116   59  125 1    
   117   60   61 1    
   118   60   62 1    
   119   60  126 1    
   120   61  127 1    
   121   61  128 1    
   122   61  129 1    
   123   62   63 2    
   124   62   64 am   BACKBONE|DICT|INTERRES
   125   64   65 1    
   126   64  130 1    
   127   65   66 1    
   128   65   69 1    
   129   65  131 1    
   130   66   67 am   BACKBONE|DICT|INTERRES
   131   66   68 2    
   132   67  132 1    
   133   67  133 1    
   134   69   70 1    
   135   69  134 1    
   136   69  135 1    
   137   70   71 1    
   138   71  136 1    
   139   71  137 1    
@<TRIPOS>SUBSTRUCTURE
     1 UNK         1 GROUP             0       ****    0 ROOT    
