@<TRIPOS>MOLECULE
3R136
137   139    1
SMALL
USER_CHARGES


@<TRIPOS>ATOM
      1 CA         29.0767   18.1798   -1.7770 C.3       0 UNK        -0.1979 
      2 C          29.0409   19.6999   -1.8164 C.2       0 UNK         0.4864 
      3 O          28.6350   20.2794   -2.8251 O.2       0 UNK        -0.5359 
      4 N          29.4440   20.3567   -0.7214 N.am      1 UNK        -0.4318 
      5 CA         29.5052   21.8150   -0.5489 C.3       1 UNK         0.0824 
      6 C6         30.5693   22.2024    0.5135 C.3       12 UNK        -0.0944 
      7 S7         30.3226   21.4246    2.1495 S.3       12 UNK        -0.2672 
      8 C8         31.7417   22.0893    3.0764 C.3       12 UNK         0.0333 
      9 C9         31.6043   23.5808    3.3518 C.ar      12 UNK        -0.0807 
     10 C10        32.3415   24.5077    2.6084 C.ar      12 UNK        -0.0894 
     11 C11        32.2317   25.8754    2.8746 C.ar      12 UNK        -0.0804 
     12 C12        31.3779   26.3166    3.8896 C.ar      12 UNK        -0.0824 
     13 C13        30.6355   25.4007    4.6393 C.ar      12 UNK        -0.0762 
     14 C14        30.7549   24.0336    4.3666 C.ar      12 UNK        -0.0782 
     15 C15        29.7151   25.8783    5.7530 C.3       12 UNK         0.0230 
     16 S16        27.9728   25.8067    5.2339 S.3       12 UNK        -0.2608 
     17 C17        27.5152   27.5700    5.1012 C.3       12 UNK        -0.0989 
     18 CA         28.1660   28.3382    3.9205 C.3       5 UNK         0.0716 
     19 N          28.1828   27.5605    2.6802 N.am      5 UNK        -0.4135 
     20 C          28.7887   27.9222    1.5416 C.2       4 UNK         0.5031 
     21 O          29.4152   28.9720    1.4002 O.2       4 UNK        -0.5229 
     22 CA         28.6003   26.9875    0.3357 C.3       4 UNK         0.0329 
     23 CB         29.7540   25.9811    0.2622 C.3       4 UNK        -0.2001 
     24 N          27.3165   26.2721    0.3410 N.am      4 UNK        -0.4303 
     25 C          26.1165   26.8740    0.2870 C.2       3 UNK         0.5044 
     26 O          25.9856   28.0992    0.2884 O.2       3 UNK        -0.5152 
     27 CA         24.8495   25.9927    0.2873 C.3       3 UNK         0.0319 
     28 CB         23.7493   26.5593   -0.6355 C.3       3 UNK        -0.2001 
     29 N          25.0830   24.5688    0.0135 N.am      3 UNK        -0.4354 
     30 C          25.5538   24.0150   -1.1135 C.2       2 UNK         0.4964 
     31 O          25.8692   24.6430   -2.1260 O.2       2 UNK        -0.5047 
     32 CA         25.7271   22.4869   -1.0838 C.3       2 UNK         0.0288 
     33 CB         24.9552   21.8182   -2.2339 C.3       2 UNK        -0.2113 
     34 N          27.1325   22.0813   -1.1485 N.am      2 UNK        -0.4145 
     35 C          28.1108   22.4517   -0.3096 C.2       1 UNK         0.5006 
     36 O          27.9361   23.2467    0.6174 O.2       1 UNK        -0.5103 
     37 C          27.4905   29.7184    3.7581 C.2       5 UNK         0.5055 
     38 O          27.8393   30.6451    4.4891 O.2       5 UNK        -0.5220 
     39 N          26.5407   29.8368    2.8158 N.am      6 UNK        -0.4450 
     40 CA         25.8691   31.0947    2.4843 C.3       6 UNK         0.0367 
     41 CB         24.5177   30.7971    1.8144 C.3       6 UNK        -0.1929 
     42 C          26.7309   31.9985    1.5864 C.2       6 UNK         0.5070 
     43 O          26.5543   33.2165    1.6228 O.2       6 UNK        -0.5237 
     44 N          27.6421   31.4027    0.8028 N.am      7 UNK        -0.4739 
     45 CA         28.6147   32.1240   -0.0185 C.3       7 UNK         0.0276 
     46 CB         29.0959   31.2317   -1.1751 C.3       7 UNK        -0.1927 
     47 C          29.7920   32.6211    0.8334 C.2       7 UNK         0.5013 
     48 O          30.1550   33.7938    0.7309 O.2       7 UNK        -0.5193 
     49 N          30.3425   31.7384    1.6769 N.am      8 UNK        -0.4253 
     50 CA         31.4019   32.0494    2.6309 C.3       8 UNK         0.0242 
     51 CB         32.7676   32.1317    1.9202 C.3       8 UNK        -0.2000 
     52 C          31.4064   30.9803    3.7254 C.2       8 UNK         0.4948 
     53 O          31.7734   29.8392    3.4520 O.2       8 UNK        -0.5275 
     54 N          31.0227   31.3613    4.9506 N.am      9 UNK        -0.4246 
     55 CA         31.0179   30.4759    6.1220 C.3       9 UNK         0.0261 
     56 CB         30.2228   31.1378    7.2586 C.3       9 UNK        -0.1959 
     57 C          32.4282   30.0872    6.6030 C.2       9 UNK         0.5033 
     58 O          32.5861   29.0267    7.2083 O.2       9 UNK        -0.5390 
     59 N          33.4174   30.9437    6.3199 N.am      10 UNK        -0.4215 
     60 CA         34.8330   30.7469    6.6208 C.3       10 UNK         0.0240 
     61 CB         35.2895   31.8179    7.6305 C.3       10 UNK        -0.1982 
     62 C          35.6289   30.7807    5.3073 C.2       10 UNK         0.4970 
     63 O          36.4913   31.6417    5.1257 O.2       10 UNK        -0.4916 
     64 N          35.3007   29.8525    4.4008 N.am      11 UNK        -0.4279 
     65 CA         35.9690   29.6593    3.1025 C.3       11 UNK         0.1003 
     66 C          37.4429   29.1570    3.1729 C.2       11 UNK         0.5709 
     67 N          37.9262   28.6586    4.3051 N.am      11 UNK        -0.7358 
     68 O          38.1645   29.2347    2.1812 O.2       11 UNK        -0.4999 
     69 C69        35.1112   28.7893    2.1448 C.3       12 UNK        -0.0954 
     70 S70        34.6550   27.1689    2.8526 S.3       12 UNK        -0.2268 
     71 C71        33.0380   26.8823    2.0737 C.3       12 UNK         0.0203 
     72 H72        29.4522   17.8057   -0.8246 H         1 UNK         0.0888 
     73 H73        28.0758   17.7768   -1.9292 H         1 UNK         0.0888 
     74 H74        29.7218   17.7997   -2.5686 H         1 UNK         0.0888 
     75 H75        29.7300   19.8300    0.0926 H         1 UNK         0.3017 
     76 H76        29.8496   22.2397   -1.4945 H         1 UNK         0.0873 
     77 H77        31.5569   21.9105    0.1530 H         1 UNK         0.0745 
     78 H78        30.6148   23.2834    0.6341 H         1 UNK         0.0745 
     79 H79        31.8229   21.5545    4.0238 H         1 UNK         0.0705 
     80 H80        32.6623   21.8785    2.5298 H         1 UNK         0.0705 
     81 H81        33.0056   24.1662    1.8261 H         1 UNK         0.1334 
     82 H82        31.3004   27.3748    4.0969 H         1 UNK         0.1417 
     83 H83        30.1808   23.3200    4.9423 H         1 UNK         0.1562 
     84 H84        29.9797   26.8882    6.0705 H         1 UNK         0.0748 
     85 H85        29.8477   25.2418    6.6290 H         1 UNK         0.0748 
     86 H86        27.7496   28.0643    6.0464 H         1 UNK         0.0940 
     87 H87        26.4265   27.5976    5.0170 H         1 UNK         0.0940 
     88 H88        29.2094   28.5285    4.1740 H         1 UNK         0.0703 
     89 H89        27.7162   26.6657    2.7133 H         1 UNK         0.3081 
     90 H90        28.6276   27.6053   -0.5644 H         1 UNK         0.0719 
     91 H91        30.7139   26.4934    0.1895 H         1 UNK         0.0809 
     92 H92        29.6647   25.3330   -0.6094 H         1 UNK         0.0809 
     93 H93        29.7842   25.3540    1.1541 H         1 UNK         0.0809 
     94 H94        27.3576   25.2584    0.3720 H         1 UNK         0.2990 
     95 H95        24.4680   26.0362    1.3084 H         1 UNK         0.0690 
     96 H96        22.8492   25.9455   -0.6043 H         1 UNK         0.0788 
     97 H97        24.0808   26.6180   -1.6726 H         1 UNK         0.0788 
     98 H98        23.4616   27.5667   -0.3313 H         1 UNK         0.0788 
     99 H99        24.8981   23.9521    0.7933 H         1 UNK         0.2993 
    100 H100       25.3244   22.1045   -0.1435 H         1 UNK         0.0949 
    101 H101       23.9000   22.0942   -2.2088 H         1 UNK         0.0767 
    102 H102       25.3473   22.1137   -3.2081 H         1 UNK         0.0767 
    103 H103       25.0074   20.7311   -2.1680 H         1 UNK         0.0767 
    104 H104       27.3937   21.4502   -1.9008 H         1 UNK         0.3013 
    105 H105       26.3295   29.0446    2.2199 H         1 UNK         0.3121 
    106 H106       25.6716   31.6399    3.4101 H         1 UNK         0.0774 
    107 H107       23.9656   31.7197    1.6306 H         1 UNK         0.0815 
    108 H108       24.6415   30.2987    0.8526 H         1 UNK         0.0815 
    109 H109       23.8911   30.1648    2.4434 H         1 UNK         0.0815 
    110 H110       27.7541   30.3991    0.8618 H         1 UNK         0.2987 
    111 H111       28.1253   32.9979   -0.4550 H         1 UNK         0.0949 
    112 H112       28.2611   30.8984   -1.7917 H         1 UNK         0.0806 
    113 H113       29.7809   31.7779   -1.8249 H         1 UNK         0.0806 
    114 H114       29.6243   30.3465   -0.8213 H         1 UNK         0.0806 
    115 H115       30.0063   30.7759    1.6855 H         1 UNK         0.3010 
    116 H116       31.1917   33.0174    3.0910 H         1 UNK         0.0829 
    117 H117       32.8171   32.9917    1.2524 H         1 UNK         0.0813 
    118 H118       33.5820   32.2321    2.6390 H         1 UNK         0.0813 
    119 H119       32.9616   31.2392    1.3254 H         1 UNK         0.0813 
    120 H120       30.6969   32.3067    5.0942 H         1 UNK         0.3038 
    121 H121       30.5060   29.5525    5.8462 H         1 UNK         0.0769 
    122 H122       30.6727   32.0802    7.5734 H         1 UNK         0.0811 
    123 H123       30.1797   30.4882    8.1339 H         1 UNK         0.0811 
    124 H124       29.1945   31.3387    6.9564 H         1 UNK         0.0811 
    125 H125       33.1867   31.7738    5.7927 H         1 UNK         0.3204 
    126 H126       35.0012   29.7655    7.0695 H         1 UNK         0.0748 
    127 H127       36.3441   31.6956    7.8808 H         1 UNK         0.0771 
    128 H128       35.1601   32.8274    7.2380 H         1 UNK         0.0771 
    129 H129       34.7263   31.7470    8.5612 H         1 UNK         0.0771 
    130 H130       34.5669   29.1914    4.6132 H         1 UNK         0.2980 
    131 H131       36.0329   30.6485    2.6451 H         1 UNK         0.0545 
    132 H132       38.8827   28.3432    4.3366 H         1 UNK         0.3459 
    133 H133       37.3403   28.5786    5.1198 H         1 UNK         0.3459 
    134 H134       34.1980   29.3330    1.9046 H         1 UNK         0.0616 
    135 H135       35.6180   28.6299    1.1913 H         1 UNK         0.0616 
    136 H136       32.4791   27.8150    1.9938 H         1 UNK         0.0634 
    137 H137       33.1888   26.5275    1.0533 H         1 UNK         0.0634 
@<TRIPOS>BOND
     1    1    2 1    
     2    1   72 1    
     3    1   73 1    
     4    1   74 1    
     5    2    3 2    
     6    2    4 am   BACKBONE|DICT|INTERRES
     7    4    5 1    
     8    4   75 1    
     9    5    6 1    
    10    5   35 1    
    11    5   76 1    
    12    6    7 1    
    13    6   77 1    
    14    6   78 1    
    15    7    8 1    
    16    8    9 1    
    17    8   79 1    
    18    8   80 1    
    19    9   10 ar   
    20    9   14 ar   
    21   10   11 ar   
    22   10   81 1    
    23   11   12 ar   
    24   11   71 1    
    25   12   13 ar   
    26   12   82 1    
    27   13   14 ar   
    28   13   15 1    
    29   14   83 1    
    30   15   16 1    
    31   15   84 1    
    32   15   85 1    
    33   16   17 1    
    34   17   18 1    
    35   17   86 1    
    36   17   87 1    
    37   18   19 1    
    38   18   37 1    
    39   18   88 1    
    40   19   20 am   BACKBONE|DICT|INTERRES
    41   19   89 1    
    42   20   21 2    
    43   20   22 1    
    44   22   23 1    
    45   22   24 1    
    46   22   90 1    
    47   23   91 1    
    48   23   92 1    
    49   23   93 1    
    50   24   25 am   BACKBONE|DICT|INTERRES
    51   24   94 1    
    52   25   26 2    
    53   25   27 1    
    54   27   28 1    
    55   27   29 1    
    56   27   95 1    
    57   28   96 1    
    58   28   97 1    
    59   28   98 1    
    60   29   30 am   BACKBONE|DICT|INTERRES
    61   29   99 1    
    62   30   31 2    
    63   30   32 1    
    64   32   33 1    
    65   32   34 1    
    66   32  100 1    
    67   33  101 1    
    68   33  102 1    
    69   33  103 1    
    70   34   35 am   BACKBONE|DICT|INTERRES
    71   34  104 1    
    72   35   36 2    
    73   37   38 2    
    74   37   39 am   BACKBONE|DICT|INTERRES
    75   39   40 1    
    76   39  105 1    
    77   40   41 1    
    78   40   42 1    
    79   40  106 1    
    80   41  107 1    
    81   41  108 1    
    82   41  109 1    
    83   42   43 2    
    84   42   44 am   BACKBONE|DICT|INTERRES
    85   44   45 1    
    86   44  110 1    
    87   45   46 1    
    88   45   47 1    
    89   45  111 1    
    90   46  112 1    
    91   46  113 1    
    92   46  114 1    
    93   47   48 2    
    94   47   49 am   BACKBONE|DICT|INTERRES
    95   49   50 1    
    96   49  115 1    
    97   50   51 1    
    98   50   52 1    
    99   50  116 1    
   100   51  117 1    
   101   51  118 1    
   102   51  119 1    
   103   52   53 2    
   104   52   54 am   BACKBONE|DICT|INTERRES
   105   54   55 1    
   106   54  120 1    
   107   55   56 1    
   108   55   57 1    
   109   55  121 1    
   110   56  122 1    
   111   56  123 1    
   112   56  124 1    
   113   57   58 2    
   114   57   59 am   BACKBONE|DICT|INTERRES
   115   59   60 1    
   116   59  125 1    
   117   60   61 1    
   118   60   62 1    
   119   60  126 1    
   120   61  127 1    
   121   61  128 1    
   122   61  129 1    
   123   62   63 2    
   124   62   64 am   BACKBONE|DICT|INTERRES
   125   64   65 1    
   126   64  130 1    
   127   65   66 1    
   128   65   69 1    
   129   65  131 1    
   130   66   67 am   BACKBONE|DICT|INTERRES
   131   66   68 2    
   132   67  132 1    
   133   67  133 1    
   134   69   70 1    
   135   69  134 1    
   136   69  135 1    
   137   70   71 1    
   138   71  136 1    
   139   71  137 1    
@<TRIPOS>SUBSTRUCTURE
     1 UNK         1 GROUP             0       ****    0 ROOT    
