@<TRIPOS>MOLECULE
3R136
137   139    1
SMALL
USER_CHARGES


@<TRIPOS>ATOM
      1 CA         30.7927   20.1891   -1.5255 C.3       0 UNK        -0.1979 
      2 C          30.5149   21.4173   -2.3798 C.2       0 UNK         0.4864 
      3 O          30.3478   21.2937   -3.5945 O.2       0 UNK        -0.5359 
      4 N          30.4731   22.6003   -1.7555 N.am      1 UNK        -0.4318 
      5 CA         30.1354   23.8757   -2.3924 C.3       1 UNK         0.0824 
      6 C6         30.6635   25.0870   -1.5773 C.3       12 UNK        -0.0944 
      7 S7         30.2002   25.0817    0.1930 S.3       12 UNK        -0.2672 
      8 C8         31.8292   24.8022    0.9604 C.3       12 UNK         0.0333 
      9 C9         31.7763   24.8363    2.4823 C.ar      12 UNK        -0.0807 
     10 C10        32.6013   25.7135    3.1950 C.ar      12 UNK        -0.0894 
     11 C11        32.6080   25.7134    4.5940 C.ar      12 UNK        -0.0804 
     12 C12        31.7514   24.8439    5.2784 C.ar      12 UNK        -0.0824 
     13 C13        30.8994   23.9830    4.5793 C.ar      12 UNK        -0.0762 
     14 C14        30.9357   23.9651    3.1821 C.ar      12 UNK        -0.0782 
     15 C15        29.9337   23.0793    5.3358 C.3       12 UNK         0.0230 
     16 S16        28.1870   23.5247    5.0446 S.3       12 UNK        -0.2608 
     17 C17        28.1715   25.3065    5.4432 C.3       12 UNK        -0.0989 
     18 CA         28.0993   26.1707    4.1548 C.3       5 UNK         0.0716 
     19 N          26.8403   26.0361    3.4139 N.am      5 UNK        -0.4135 
     20 C          25.6001   26.3659    3.7979 C.2       4 UNK         0.5031 
     21 O          25.3275   26.8195    4.9120 O.2       4 UNK        -0.5229 
     22 CA         24.4850   26.1882    2.7441 C.3       4 UNK         0.0329 
     23 CB         23.1448   26.8009    3.1936 C.3       4 UNK        -0.2001 
     24 N          24.8539   26.7587    1.4423 N.am      4 UNK        -0.4303 
     25 C          25.6640   26.1765    0.5501 C.2       3 UNK         0.5044 
     26 O          26.1877   25.0737    0.7255 O.2       3 UNK        -0.5152 
     27 CA         26.0024   26.9857   -0.7038 C.3       3 UNK         0.0319 
     28 CB         27.1560   27.9644   -0.4144 C.3       3 UNK        -0.2001 
     29 N          26.3995   26.0583   -1.7563 N.am      3 UNK        -0.4354 
     30 C          26.3409   26.2848   -3.0718 C.2       2 UNK         0.4964 
     31 O          25.9245   27.3354   -3.5636 O.2       2 UNK        -0.5047 
     32 CA         26.8665   25.1564   -3.9822 C.3       2 UNK         0.0288 
     33 CB         26.7902   25.5126   -5.4795 C.3       2 UNK        -0.2113 
     34 N          28.2519   24.8157   -3.6459 N.am      2 UNK        -0.4145 
     35 C          28.6203   23.9854   -2.6610 C.2       1 UNK         0.5006 
     36 O          27.8144   23.3667   -1.9597 O.2       1 UNK        -0.5103 
     37 C          28.4744   27.6396    4.4257 C.2       5 UNK         0.5055 
     38 O          29.4745   28.1164    3.8912 O.2       5 UNK        -0.5220 
     39 N          27.6639   28.3407    5.2276 N.am      6 UNK        -0.4450 
     40 CA         27.8819   29.6957    5.7472 C.3       6 UNK         0.0367 
     41 CB         26.9518   29.9097    6.9560 C.3       6 UNK        -0.1929 
     42 C          27.7619   30.8280    4.7014 C.2       6 UNK         0.5070 
     43 O          27.2068   31.8855    5.0055 O.2       6 UNK        -0.5237 
     44 N          28.2791   30.5980    3.4910 N.am      7 UNK        -0.4739 
     45 CA         28.3092   31.5434    2.3752 C.3       7 UNK         0.0276 
     46 CB         26.9022   31.6832    1.7527 C.3       7 UNK        -0.1927 
     47 C          29.3778   31.1717    1.3291 C.2       7 UNK         0.5013 
     48 O          29.2713   31.6232    0.1873 O.2       7 UNK        -0.5193 
     49 N          30.3809   30.3633    1.7017 N.am      8 UNK        -0.4253 
     50 CA         31.4446   29.9086    0.8079 C.3       8 UNK         0.0242 
     51 CB         31.0319   28.5774    0.1617 C.3       8 UNK        -0.2000 
     52 C          32.7515   29.7428    1.5873 C.2       8 UNK         0.4948 
     53 O          32.7197   29.3736    2.7628 O.2       8 UNK        -0.5275 
     54 N          33.8781   29.9895    0.9027 N.am      9 UNK        -0.4246 
     55 CA         35.2536   29.8862    1.4057 C.3       9 UNK         0.0261 
     56 CB         35.6502   28.3982    1.5547 C.3       9 UNK        -0.1959 
     57 C          35.4665   30.7288    2.6817 C.2       9 UNK         0.5033 
     58 O          35.0192   31.8772    2.7287 O.2       9 UNK        -0.5390 
     59 N          36.1156   30.1477    3.6988 N.am      10 UNK        -0.4215 
     60 CA         36.3206   30.7511    5.0185 C.3       10 UNK         0.0240 
     61 CB         37.3717   29.9290    5.7833 C.3       10 UNK        -0.1982 
     62 C          35.0312   30.8811    5.8537 C.2       10 UNK         0.4970 
     63 O          35.0268   31.6451    6.8199 O.2       10 UNK        -0.4916 
     64 N          33.9774   30.1397    5.4880 N.am      11 UNK        -0.4279 
     65 CA         32.6661   30.1655    6.1498 C.3       11 UNK         0.1003 
     66 C          31.7528   31.3294    5.6687 C.2       11 UNK         0.5709 
     67 N          32.0793   32.0409    4.5951 N.am      11 UNK        -0.7358 
     68 O          30.7409   31.6126    6.3034 O.2       11 UNK        -0.4999 
     69 C69        31.9467   28.7951    6.0433 C.3       12 UNK        -0.0954 
     70 S70        32.8906   27.4384    6.8101 S.3       12 UNK        -0.2268 
     71 C71        33.5945   26.6045    5.3470 C.3       12 UNK         0.0203 
     72 H72        31.6919   19.6832   -1.8762 H         1 UNK         0.0888 
     73 H73        30.9361   20.4464   -0.4761 H         1 UNK         0.0888 
     74 H74        29.9595   19.4900   -1.5922 H         1 UNK         0.0888 
     75 H75        30.5633   22.6405   -0.7508 H         1 UNK         0.3017 
     76 H76        30.6321   23.8970   -3.3653 H         1 UNK         0.0873 
     77 H77        31.7508   25.1185   -1.6602 H         1 UNK         0.0745 
     78 H78        30.3223   26.0282   -2.0127 H         1 UNK         0.0745 
     79 H79        32.2196   23.8355    0.6399 H         1 UNK         0.0705 
     80 H80        32.5239   25.5577    0.5894 H         1 UNK         0.0705 
     81 H81        33.2589   26.3830    2.6584 H         1 UNK         0.1334 
     82 H82        31.7480   24.8386    6.3596 H         1 UNK         0.1417 
     83 H83        30.2885   23.2901    2.6386 H         1 UNK         0.1562 
     84 H84        30.1307   23.1124    6.4085 H         1 UNK         0.0748 
     85 H85        30.0922   22.0449    5.0278 H         1 UNK         0.0748 
     86 H86        29.0603   25.5491    6.0287 H         1 UNK         0.0940 
     87 H87        27.3250   25.5078    6.1011 H         1 UNK         0.0940 
     88 H88        28.8648   25.8048    3.4694 H         1 UNK         0.0703 
     89 H89        26.9315   25.6523    2.4784 H         1 UNK         0.3081 
     90 H90        24.3321   25.1132    2.6252 H         1 UNK         0.0719 
     91 H91        23.2266   27.8765    3.3556 H         1 UNK         0.0809 
     92 H92        22.3619   26.6302    2.4545 H         1 UNK         0.0809 
     93 H93        22.8045   26.3550    4.1293 H         1 UNK         0.0809 
     94 H94        24.4976   27.6827    1.2425 H         1 UNK         0.2990 
     95 H95        25.1130   27.5366   -1.0170 H         1 UNK         0.0690 
     96 H96        26.9049   28.6416    0.4012 H         1 UNK         0.0788 
     97 H97        27.3890   28.5778   -1.2849 H         1 UNK         0.0788 
     98 H98        28.0646   27.4341   -0.1258 H         1 UNK         0.0788 
     99 H99        26.7270   25.1556   -1.4213 H         1 UNK         0.2993 
    100 H100       26.2286   24.2851   -3.8163 H         1 UNK         0.0949 
    101 H101       27.1302   24.6842   -6.1015 H         1 UNK         0.0767 
    102 H102       25.7646   25.7374   -5.7759 H         1 UNK         0.0767 
    103 H103       27.3989   26.3852   -5.7203 H         1 UNK         0.0767 
    104 H104       28.9673   25.3147   -4.1554 H         1 UNK         0.3013 
    105 H105       26.7913   27.8889    5.4910 H         1 UNK         0.3121 
    106 H106       28.9053   29.7366    6.1180 H         1 UNK         0.0774 
    107 H107       27.1460   30.8693    7.4372 H         1 UNK         0.0815 
    108 H108       25.9020   29.8964    6.6606 H         1 UNK         0.0815 
    109 H109       27.0988   29.1388    7.7125 H         1 UNK         0.0815 
    110 H110       28.7285   29.6958    3.3459 H         1 UNK         0.2987 
    111 H111       28.6062   32.5182    2.7679 H         1 UNK         0.0949 
    112 H112       26.5405   30.7337    1.3608 H         1 UNK         0.0806 
    113 H113       26.1742   32.0408    2.4806 H         1 UNK         0.0806 
    114 H114       26.9003   32.3996    0.9303 H         1 UNK         0.0806 
    115 H115       30.4755   30.0510    2.6610 H         1 UNK         0.3010 
    116 H116       31.6120   30.6514    0.0248 H         1 UNK         0.0829 
    117 H117       30.1567   28.6999   -0.4757 H         1 UNK         0.0813 
    118 H118       31.8306   28.1680   -0.4581 H         1 UNK         0.0813 
    119 H119       30.7927   27.8348    0.9238 H         1 UNK         0.0813 
    120 H120       33.7926   30.3142   -0.0504 H         1 UNK         0.3038 
    121 H121       35.8960   30.3270    0.6420 H         1 UNK         0.0769 
    122 H122       35.0897   27.9019    2.3473 H         1 UNK         0.0811 
    123 H123       36.7133   28.2867    1.7716 H         1 UNK         0.0811 
    124 H124       35.4613   27.8506    0.6312 H         1 UNK         0.0811 
    125 H125       36.4528   29.2042    3.5739 H         1 UNK         0.3204 
    126 H126       36.7142   31.7593    4.8720 H         1 UNK         0.0748 
    127 H127       37.5804   30.3717    6.7584 H         1 UNK         0.0771 
    128 H128       37.0364   28.9053    5.9562 H         1 UNK         0.0771 
    129 H129       38.3166   29.8878    5.2410 H         1 UNK         0.0771 
    130 H130       34.0181   29.5965    4.6364 H         1 UNK         0.2980 
    131 H131       32.8324   30.3501    7.2128 H         1 UNK         0.0545 
    132 H132       31.4922   32.8094    4.3159 H         1 UNK         0.3459 
    133 H133       32.9095   31.8163    4.0663 H         1 UNK         0.3459 
    134 H134       30.9801   28.8294    6.5462 H         1 UNK         0.0616 
    135 H135       31.7409   28.5466    5.0030 H         1 UNK         0.0616 
    136 H136       34.0185   27.3581    4.6824 H         1 UNK         0.0634 
    137 H137       34.4281   25.9836    5.6766 H         1 UNK         0.0634 
@<TRIPOS>BOND
     1    1    2 1    
     2    1   72 1    
     3    1   73 1    
     4    1   74 1    
     5    2    3 2    
     6    2    4 am   BACKBONE|DICT|INTERRES
     7    4    5 1    
     8    4   75 1    
     9    5    6 1    
    10    5   35 1    
    11    5   76 1    
    12    6    7 1    
    13    6   77 1    
    14    6   78 1    
    15    7    8 1    
    16    8    9 1    
    17    8   79 1    
    18    8   80 1    
    19    9   10 ar   
    20    9   14 ar   
    21   10   11 ar   
    22   10   81 1    
    23   11   12 ar   
    24   11   71 1    
    25   12   13 ar   
    26   12   82 1    
    27   13   14 ar   
    28   13   15 1    
    29   14   83 1    
    30   15   16 1    
    31   15   84 1    
    32   15   85 1    
    33   16   17 1    
    34   17   18 1    
    35   17   86 1    
    36   17   87 1    
    37   18   19 1    
    38   18   37 1    
    39   18   88 1    
    40   19   20 am   BACKBONE|DICT|INTERRES
    41   19   89 1    
    42   20   21 2    
    43   20   22 1    
    44   22   23 1    
    45   22   24 1    
    46   22   90 1    
    47   23   91 1    
    48   23   92 1    
    49   23   93 1    
    50   24   25 am   BACKBONE|DICT|INTERRES
    51   24   94 1    
    52   25   26 2    
    53   25   27 1    
    54   27   28 1    
    55   27   29 1    
    56   27   95 1    
    57   28   96 1    
    58   28   97 1    
    59   28   98 1    
    60   29   30 am   BACKBONE|DICT|INTERRES
    61   29   99 1    
    62   30   31 2    
    63   30   32 1    
    64   32   33 1    
    65   32   34 1    
    66   32  100 1    
    67   33  101 1    
    68   33  102 1    
    69   33  103 1    
    70   34   35 am   BACKBONE|DICT|INTERRES
    71   34  104 1    
    72   35   36 2    
    73   37   38 2    
    74   37   39 am   BACKBONE|DICT|INTERRES
    75   39   40 1    
    76   39  105 1    
    77   40   41 1    
    78   40   42 1    
    79   40  106 1    
    80   41  107 1    
    81   41  108 1    
    82   41  109 1    
    83   42   43 2    
    84   42   44 am   BACKBONE|DICT|INTERRES
    85   44   45 1    
    86   44  110 1    
    87   45   46 1    
    88   45   47 1    
    89   45  111 1    
    90   46  112 1    
    91   46  113 1    
    92   46  114 1    
    93   47   48 2    
    94   47   49 am   BACKBONE|DICT|INTERRES
    95   49   50 1    
    96   49  115 1    
    97   50   51 1    
    98   50   52 1    
    99   50  116 1    
   100   51  117 1    
   101   51  118 1    
   102   51  119 1    
   103   52   53 2    
   104   52   54 am   BACKBONE|DICT|INTERRES
   105   54   55 1    
   106   54  120 1    
   107   55   56 1    
   108   55   57 1    
   109   55  121 1    
   110   56  122 1    
   111   56  123 1    
   112   56  124 1    
   113   57   58 2    
   114   57   59 am   BACKBONE|DICT|INTERRES
   115   59   60 1    
   116   59  125 1    
   117   60   61 1    
   118   60   62 1    
   119   60  126 1    
   120   61  127 1    
   121   61  128 1    
   122   61  129 1    
   123   62   63 2    
   124   62   64 am   BACKBONE|DICT|INTERRES
   125   64   65 1    
   126   64  130 1    
   127   65   66 1    
   128   65   69 1    
   129   65  131 1    
   130   66   67 am   BACKBONE|DICT|INTERRES
   131   66   68 2    
   132   67  132 1    
   133   67  133 1    
   134   69   70 1    
   135   69  134 1    
   136   69  135 1    
   137   70   71 1    
   138   71  136 1    
   139   71  137 1    
@<TRIPOS>SUBSTRUCTURE
     1 UNK         1 GROUP             0       ****    0 ROOT    
