@<TRIPOS>MOLECULE
3R136
137   139    1
SMALL
USER_CHARGES


@<TRIPOS>ATOM
      1 CA         26.7508   21.6042   -1.0889 C.3       0 UNK        -0.1979 
      2 C          27.4973   22.8704   -0.6982 C.2       0 UNK         0.4864 
      3 O          27.5572   23.1934    0.4889 O.2       0 UNK        -0.5359 
      4 N          28.0623   23.5801   -1.6892 N.am      1 UNK        -0.4318 
      5 CA         28.7912   24.8497   -1.5542 C.3       1 UNK         0.0824 
      6 C6         30.1176   24.7065   -0.7565 C.3       12 UNK        -0.0944 
      7 S7         31.5162   24.2691   -1.8434 S.3       12 UNK        -0.2672 
      8 C8         32.6005   23.3005   -0.7404 C.3       12 UNK         0.0333 
      9 C9         32.6711   23.8656    0.6731 C.ar      12 UNK        -0.0807 
     10 C10        33.1294   25.1669    0.9037 C.ar      12 UNK        -0.0894 
     11 C11        33.1344   25.7096    2.1935 C.ar      12 UNK        -0.0804 
     12 C12        32.6936   24.9154    3.2615 C.ar      12 UNK        -0.0824 
     13 C13        32.2380   23.6110    3.0436 C.ar      12 UNK        -0.0762 
     14 C14        32.2338   23.0910    1.7491 C.ar      12 UNK        -0.0782 
     15 C15        31.7206   22.7646    4.1976 C.3       12 UNK         0.0230 
     16 S16        29.8983   22.7246    4.2313 S.3       12 UNK        -0.2608 
     17 C17        29.5203   24.4706    4.5948 C.3       12 UNK        -0.0989 
     18 CA         29.0113   25.2456    3.3435 C.3       5 UNK         0.0716 
     19 N          27.7078   24.7483    2.8766 N.am      5 UNK        -0.4135 
     20 C          26.5392   24.8569    3.5225 C.2       4 UNK         0.5031 
     21 O          26.3563   25.5624    4.5168 O.2       4 UNK        -0.5229 
     22 CA         25.3854   23.9979    2.9898 C.3       4 UNK         0.0329 
     23 CB         24.3602   23.6553    4.0939 C.3       4 UNK        -0.2001 
     24 N          24.7237   24.6656    1.8721 N.am      4 UNK        -0.4303 
     25 C          23.9351   24.0489    0.9845 C.2       3 UNK         0.5044 
     26 O          23.7097   22.8378    0.9947 O.2       3 UNK        -0.5152 
     27 CA         23.2740   24.9084   -0.1057 C.3       3 UNK         0.0319 
     28 CB         22.1001   25.7354    0.4568 C.3       3 UNK        -0.2001 
     29 N          24.2170   25.7302   -0.8727 N.am      3 UNK        -0.4354 
     30 C          24.9107   26.8058   -0.4764 C.2       2 UNK         0.4964 
     31 O          24.8524   27.2944    0.6534 O.2       2 UNK        -0.5047 
     32 CA         25.8696   27.3780   -1.5349 C.3       2 UNK         0.0288 
     33 CB         26.4446   28.7602   -1.1619 C.3       2 UNK        -0.2113 
     34 N          26.9373   26.4172   -1.8414 N.am      2 UNK        -0.4145 
     35 C          27.8650   25.9472   -0.9920 C.2       1 UNK         0.5006 
     36 O          27.9910   26.3240    0.1742 O.2       1 UNK        -0.5103 
     37 C          29.0358   26.7750    3.5689 C.2       5 UNK         0.5055 
     38 O          29.4588   27.2293    4.6333 O.2       5 UNK        -0.5220 
     39 N          28.5885   27.5482    2.5741 N.am      6 UNK        -0.4450 
     40 CA         28.5114   29.0119    2.6306 C.3       6 UNK         0.0367 
     41 CB         27.0426   29.4292    2.8295 C.3       6 UNK        -0.1929 
     42 C          29.1502   29.6800    1.4004 C.2       6 UNK         0.5070 
     43 O          28.8977   30.8595    1.1540 O.2       6 UNK        -0.5237 
     44 N          29.9653   28.9322    0.6416 N.am      7 UNK        -0.4739 
     45 CA         30.6198   29.3943   -0.5897 C.3       7 UNK         0.0276 
     46 CB         31.1407   28.1804   -1.3756 C.3       7 UNK        -0.1927 
     47 C          31.7525   30.4175   -0.3783 C.2       7 UNK         0.5013 
     48 O          32.1722   31.0455   -1.3517 O.2       7 UNK        -0.5193 
     49 N          32.2353   30.5667    0.8600 N.am      8 UNK        -0.4253 
     50 CA         33.2647   31.5234    1.2513 C.3       8 UNK         0.0242 
     51 CB         34.6307   30.8170    1.3033 C.3       8 UNK        -0.2000 
     52 C          32.9001   32.0940    2.6225 C.2       8 UNK         0.4948 
     53 O          32.3133   31.3808    3.4398 O.2       8 UNK        -0.5275 
     54 N          33.3046   33.3465    2.8736 N.am      9 UNK        -0.4246 
     55 CA         33.0763   34.0690    4.1325 C.3       9 UNK         0.0261 
     56 CB         33.4960   35.5378    3.9565 C.3       9 UNK        -0.1959 
     57 C          33.7837   33.4494    5.3531 C.2       9 UNK         0.5033 
     58 O          33.3476   33.6773    6.4818 O.2       9 UNK        -0.5390 
     59 N          34.8457   32.6697    5.1075 N.am      10 UNK        -0.4215 
     60 CA         35.5519   31.8698    6.1098 C.3       10 UNK         0.0240 
     61 CB         36.9136   31.4436    5.5356 C.3       10 UNK        -0.1982 
     62 C          34.7586   30.6338    6.5792 C.2       10 UNK         0.4970 
     63 O          35.0847   30.0922    7.6368 O.2       10 UNK        -0.4916 
     64 N          33.7626   30.2010    5.7940 N.am      11 UNK        -0.4279 
     65 CA         32.8760   29.0691    6.0921 C.3       11 UNK         0.1003 
     66 C          31.6023   29.5589    6.8454 C.2       11 UNK         0.5709 
     67 N          30.4249   29.0019    6.5980 N.am      11 UNK        -0.7358 
     68 O          31.6753   30.4270    7.7135 O.2       11 UNK        -0.4999 
     69 C69        32.6068   28.2067    4.8253 C.3       12 UNK        -0.0954 
     70 S70        34.1520   27.6171    4.0458 S.3       12 UNK        -0.2268 
     71 C71        33.5905   27.1607    2.3690 C.3       12 UNK         0.0203 
     72 H72        25.7154   21.6634   -0.7538 H         1 UNK         0.0888 
     73 H73        26.7508   21.4441   -2.1669 H         1 UNK         0.0888 
     74 H74        27.2123   20.7379   -0.6160 H         1 UNK         0.0888 
     75 H75        27.9763   23.2387   -2.6365 H         1 UNK         0.3017 
     76 H76        29.0405   25.1742   -2.5660 H         1 UNK         0.0873 
     77 H77        30.0173   23.9702    0.0411 H         1 UNK         0.0745 
     78 H78        30.3992   25.6332   -0.2562 H         1 UNK         0.0745 
     79 H79        32.2412   22.2704   -0.7267 H         1 UNK         0.0705 
     80 H80        33.6041   23.2695   -1.1662 H         1 UNK         0.0705 
     81 H81        33.4563   25.7678    0.0658 H         1 UNK         0.1334 
     82 H82        32.6865   25.3070    4.2671 H         1 UNK         0.1417 
     83 H83        31.8633   22.0888    1.5803 H         1 UNK         0.1562 
     84 H84        32.0978   23.1348    5.1523 H         1 UNK         0.0748 
     85 H85        32.0949   21.7445    4.0987 H         1 UNK         0.0748 
     86 H86        30.4160   24.9322    5.0123 H         1 UNK         0.0940 
     87 H87        28.7808   24.5075    5.3965 H         1 UNK         0.0940 
     88 H88        29.7107   25.0631    2.5262 H         1 UNK         0.0703 
     89 H89        27.7286   24.1933    2.0203 H         1 UNK         0.3081 
     90 H90        25.8192   23.0613    2.6320 H         1 UNK         0.0719 
     91 H91        24.8543   23.2174    4.9622 H         1 UNK         0.0809 
     92 H92        23.8244   24.5421    4.4344 H         1 UNK         0.0809 
     93 H93        23.6224   22.9316    3.7479 H         1 UNK         0.0809 
     94 H94        24.8909   25.6628    1.7602 H         1 UNK         0.2990 
     95 H95        22.8499   24.2118   -0.8311 H         1 UNK         0.0690 
     96 H96        21.5940   26.2923   -0.3317 H         1 UNK         0.0788 
     97 H97        22.4227   26.4479    1.2164 H         1 UNK         0.0788 
     98 H98        21.3580   25.0853    0.9220 H         1 UNK         0.0788 
     99 H99        24.3835   25.4000   -1.8133 H         1 UNK         0.2993 
    100 H100       25.2876   27.5092   -2.4489 H         1 UNK         0.0949 
    101 H101       27.0320   28.7210   -0.2477 H         1 UNK         0.0767 
    102 H102       27.0852   29.1509   -1.9523 H         1 UNK         0.0767 
    103 H103       25.6450   29.4840   -1.0004 H         1 UNK         0.0767 
    104 H104       26.9154   26.0310   -2.7752 H         1 UNK         0.3013 
    105 H105       28.2587   27.1040    1.7133 H         1 UNK         0.3121 
    106 H106       29.0806   29.3872    3.4836 H         1 UNK         0.0774 
    107 H107       26.4153   29.1066    1.9990 H         1 UNK         0.0815 
    108 H108       26.6324   28.9957    3.7417 H         1 UNK         0.0815 
    109 H109       26.9450   30.5120    2.9149 H         1 UNK         0.0815 
    110 H110       30.1102   27.9687    0.9051 H         1 UNK         0.2987 
    111 H111       29.8638   29.8910   -1.2022 H         1 UNK         0.0949 
    112 H112       30.3215   27.5412   -1.6997 H         1 UNK         0.0806 
    113 H113       31.6697   28.4913   -2.2777 H         1 UNK         0.0806 
    114 H114       31.8339   27.5811   -0.7847 H         1 UNK         0.0806 
    115 H115       31.7873   30.0834    1.6270 H         1 UNK         0.3010 
    116 H116       33.3050   32.3452    0.5327 H         1 UNK         0.0829 
    117 H117       34.6461   30.0223    2.0501 H         1 UNK         0.0813 
    118 H118       35.4271   31.5181    1.5553 H         1 UNK         0.0813 
    119 H119       34.8839   30.3741    0.3399 H         1 UNK         0.0813 
    120 H120       33.7907   33.8544    2.1476 H         1 UNK         0.3038 
    121 H121       32.0037   34.0421    4.3371 H         1 UNK         0.0769 
    122 H122       32.9334   36.0193    3.1563 H         1 UNK         0.0811 
    123 H123       34.5580   35.6304    3.7256 H         1 UNK         0.0811 
    124 H124       33.3102   36.1086    4.8676 H         1 UNK         0.0811 
    125 H125       35.1444   32.5648    4.1494 H         1 UNK         0.3204 
    126 H126       35.7294   32.4969    6.9862 H         1 UNK         0.0748 
    127 H127       36.8002   30.8122    4.6532 H         1 UNK         0.0771 
    128 H128       37.5164   32.3083    5.2571 H         1 UNK         0.0771 
    129 H129       37.4864   30.8755    6.2702 H         1 UNK         0.0771 
    130 H130       33.5076   30.7322    4.9698 H         1 UNK         0.2980 
    131 H131       33.3792   28.4125    6.8037 H         1 UNK         0.0545 
    132 H132       30.2892   28.2969    5.8764 H         1 UNK         0.3459 
    133 H133       29.6257   29.3244    7.1184 H         1 UNK         0.3459 
    134 H134       32.0232   28.7705    4.0961 H         1 UNK         0.0616 
    135 H135       32.0178   27.3295    5.0899 H         1 UNK         0.0616 
    136 H136       32.7865   27.8273    2.0560 H         1 UNK         0.0634 
    137 H137       34.4235   27.3520    1.6907 H         1 UNK         0.0634 
@<TRIPOS>BOND
     1    1    2 1    
     2    1   72 1    
     3    1   73 1    
     4    1   74 1    
     5    2    3 2    
     6    2    4 am   BACKBONE|DICT|INTERRES
     7    4    5 1    
     8    4   75 1    
     9    5    6 1    
    10    5   35 1    
    11    5   76 1    
    12    6    7 1    
    13    6   77 1    
    14    6   78 1    
    15    7    8 1    
    16    8    9 1    
    17    8   79 1    
    18    8   80 1    
    19    9   10 ar   
    20    9   14 ar   
    21   10   11 ar   
    22   10   81 1    
    23   11   12 ar   
    24   11   71 1    
    25   12   13 ar   
    26   12   82 1    
    27   13   14 ar   
    28   13   15 1    
    29   14   83 1    
    30   15   16 1    
    31   15   84 1    
    32   15   85 1    
    33   16   17 1    
    34   17   18 1    
    35   17   86 1    
    36   17   87 1    
    37   18   19 1    
    38   18   37 1    
    39   18   88 1    
    40   19   20 am   BACKBONE|DICT|INTERRES
    41   19   89 1    
    42   20   21 2    
    43   20   22 1    
    44   22   23 1    
    45   22   24 1    
    46   22   90 1    
    47   23   91 1    
    48   23   92 1    
    49   23   93 1    
    50   24   25 am   BACKBONE|DICT|INTERRES
    51   24   94 1    
    52   25   26 2    
    53   25   27 1    
    54   27   28 1    
    55   27   29 1    
    56   27   95 1    
    57   28   96 1    
    58   28   97 1    
    59   28   98 1    
    60   29   30 am   BACKBONE|DICT|INTERRES
    61   29   99 1    
    62   30   31 2    
    63   30   32 1    
    64   32   33 1    
    65   32   34 1    
    66   32  100 1    
    67   33  101 1    
    68   33  102 1    
    69   33  103 1    
    70   34   35 am   BACKBONE|DICT|INTERRES
    71   34  104 1    
    72   35   36 2    
    73   37   38 2    
    74   37   39 am   BACKBONE|DICT|INTERRES
    75   39   40 1    
    76   39  105 1    
    77   40   41 1    
    78   40   42 1    
    79   40  106 1    
    80   41  107 1    
    81   41  108 1    
    82   41  109 1    
    83   42   43 2    
    84   42   44 am   BACKBONE|DICT|INTERRES
    85   44   45 1    
    86   44  110 1    
    87   45   46 1    
    88   45   47 1    
    89   45  111 1    
    90   46  112 1    
    91   46  113 1    
    92   46  114 1    
    93   47   48 2    
    94   47   49 am   BACKBONE|DICT|INTERRES
    95   49   50 1    
    96   49  115 1    
    97   50   51 1    
    98   50   52 1    
    99   50  116 1    
   100   51  117 1    
   101   51  118 1    
   102   51  119 1    
   103   52   53 2    
   104   52   54 am   BACKBONE|DICT|INTERRES
   105   54   55 1    
   106   54  120 1    
   107   55   56 1    
   108   55   57 1    
   109   55  121 1    
   110   56  122 1    
   111   56  123 1    
   112   56  124 1    
   113   57   58 2    
   114   57   59 am   BACKBONE|DICT|INTERRES
   115   59   60 1    
   116   59  125 1    
   117   60   61 1    
   118   60   62 1    
   119   60  126 1    
   120   61  127 1    
   121   61  128 1    
   122   61  129 1    
   123   62   63 2    
   124   62   64 am   BACKBONE|DICT|INTERRES
   125   64   65 1    
   126   64  130 1    
   127   65   66 1    
   128   65   69 1    
   129   65  131 1    
   130   66   67 am   BACKBONE|DICT|INTERRES
   131   66   68 2    
   132   67  132 1    
   133   67  133 1    
   134   69   70 1    
   135   69  134 1    
   136   69  135 1    
   137   70   71 1    
   138   71  136 1    
   139   71  137 1    
@<TRIPOS>SUBSTRUCTURE
     1 UNK         1 GROUP             0       ****    0 ROOT    
