@<TRIPOS>MOLECULE
3R136
137   139    1
SMALL
USER_CHARGES


@<TRIPOS>ATOM
      1 CA         31.2341   27.3327   -2.8127 C.3       0 UNK        -0.1979 
      2 C          30.6495   25.9951   -2.3841 C.2       0 UNK         0.4864 
      3 O          30.2937   25.1856   -3.2418 O.2       0 UNK        -0.5359 
      4 N          30.5576   25.7651   -1.0657 N.am      1 UNK        -0.4318 
      5 CA         29.9859   24.5746   -0.4225 C.3       1 UNK         0.0824 
      6 C6         30.8079   23.2874   -0.7385 C.3       12 UNK        -0.0944 
      7 S7         30.3274   21.7999    0.2073 S.3       12 UNK        -0.2672 
      8 C8         31.4766   21.8364    1.6169 C.3       12 UNK         0.0333 
      9 C9         31.0394   22.8420    2.6707 C.ar      12 UNK        -0.0807 
     10 C10        31.7778   24.0082    2.8892 C.ar      12 UNK        -0.0894 
     11 C11        31.3826   24.9225    3.8702 C.ar      12 UNK        -0.0804 
     12 C12        30.2494   24.6572    4.6445 C.ar      12 UNK        -0.0824 
     13 C13        29.4836   23.5096    4.4113 C.ar      12 UNK        -0.0762 
     14 C14        29.8913   22.6007    3.4314 C.ar      12 UNK        -0.0782 
     15 C15        28.2020   23.2582    5.1953 C.3       12 UNK         0.0230 
     16 S16        26.7343   23.8885    4.3097 S.3       12 UNK        -0.2608 
     17 C17        26.9929   25.6880    4.4399 C.3       12 UNK        -0.0989 
     18 CA         27.6613   26.2653    3.1565 C.3       5 UNK         0.0716 
     19 N          26.7083   26.5441    2.0771 N.am      5 UNK        -0.4135 
     20 C          25.7720   27.5046    2.0653 C.2       4 UNK         0.5031 
     21 O          25.5630   28.2866    2.9933 O.2       4 UNK        -0.5229 
     22 CA         24.9127   27.6089    0.7958 C.3       4 UNK         0.0329 
     23 CB         25.6449   28.4152   -0.2901 C.3       4 UNK        -0.2001 
     24 N          24.5290   26.3002    0.2632 N.am      4 UNK        -0.4303 
     25 C          23.6567   25.4623    0.8459 C.2       3 UNK         0.5044 
     26 O          23.0601   25.7175    1.8926 O.2       3 UNK        -0.5152 
     27 CA         23.3758   24.1233    0.1361 C.3       3 UNK         0.0319 
     28 CB         22.0058   24.1617   -0.5613 C.3       3 UNK        -0.2001 
     29 N          24.4015   23.7744   -0.8499 N.am      3 UNK        -0.4354 
     30 C          25.6057   23.2728   -0.5465 C.2       2 UNK         0.4964 
     31 O          25.9354   22.9389    0.5928 O.2       2 UNK        -0.5047 
     32 CA         26.6119   23.1223   -1.7068 C.3       2 UNK         0.0288 
     33 CB         26.2630   23.9694   -2.9534 C.3       2 UNK        -0.2113 
     34 N          27.9918   23.3976   -1.2921 N.am      2 UNK        -0.4145 
     35 C          28.4677   24.5115   -0.7151 C.2       1 UNK         0.5006 
     36 O          27.7676   25.4826   -0.4093 O.2       1 UNK        -0.5103 
     37 C          28.5791   27.4773    3.4295 C.2       5 UNK         0.5055 
     38 O          28.6916   27.9406    4.5665 O.2       5 UNK        -0.5220 
     39 N          29.2380   27.9599    2.3719 N.am      6 UNK        -0.4450 
     40 CA         30.2260   29.0292    2.4272 C.3       6 UNK         0.0367 
     41 CB         29.5437   30.3729    2.1257 C.3       6 UNK        -0.1929 
     42 C          31.3202   28.7432    1.3999 C.2       6 UNK         0.5070 
     43 O          31.0318   28.1372    0.3669 O.2       6 UNK        -0.5237 
     44 N          32.5358   29.2151    1.6864 N.am      7 UNK        -0.4739 
     45 CA         33.6247   29.3556    0.7183 C.3       7 UNK         0.0276 
     46 CB         34.9012   28.6954    1.2636 C.3       7 UNK        -0.1927 
     47 C          33.8586   30.8479    0.4371 C.2       7 UNK         0.5013 
     48 O          34.0185   31.2301   -0.7222 O.2       7 UNK        -0.5193 
     49 N          33.8270   31.6652    1.4978 N.am      8 UNK        -0.4253 
     50 CA         33.8773   33.1224    1.4583 C.3       8 UNK         0.0242 
     51 CB         35.3417   33.6015    1.4697 C.3       8 UNK        -0.2000 
     52 C          33.0836   33.6105    2.6731 C.2       8 UNK         0.4948 
     53 O          33.6528   33.7372    3.7581 O.2       8 UNK        -0.5275 
     54 N          31.7604   33.7540    2.5029 N.am      9 UNK        -0.4246 
     55 CA         30.7256   34.0485    3.5151 C.3       9 UNK         0.0261 
     56 CB         30.9860   35.3894    4.2295 C.3       9 UNK        -0.1959 
     57 C          30.4821   32.9133    4.5328 C.2       9 UNK         0.5033 
     58 O          29.3333   32.6725    4.9038 O.2       9 UNK        -0.5390 
     59 N          31.5492   32.2163    4.9252 N.am      10 UNK        -0.4215 
     60 CA         31.5768   30.9830    5.7036 C.3       10 UNK         0.0240 
     61 CB         31.5688   31.3161    7.2097 C.3       10 UNK        -0.1982 
     62 C          32.8171   30.1883    5.2555 C.2       10 UNK         0.4970 
     63 O          33.3131   30.4206    4.1468 O.2       10 UNK        -0.4916 
     64 N          33.3003   29.2757    6.1038 N.am      11 UNK        -0.4279 
     65 CA         34.5876   28.5796    5.9421 C.3       11 UNK         0.1003 
     66 C          35.2660   28.1948    7.2896 C.2       11 UNK         0.5709 
     67 N          34.8289   28.7229    8.4283 N.am      11 UNK        -0.7358 
     68 O          36.2241   27.4257    7.3088 O.2       11 UNK        -0.4999 
     69 C69        34.5464   27.4318    4.8954 C.3       12 UNK        -0.0954 
     70 S70        33.4552   26.0326    5.3245 S.3       12 UNK        -0.2268 
     71 C71        32.1628   26.2120    4.0629 C.3       12 UNK         0.0203 
     72 H72        31.9765   27.6886   -2.0990 H         1 UNK         0.0888 
     73 H73        31.7207   27.2448   -3.7838 H         1 UNK         0.0888 
     74 H74        30.4450   28.0799   -2.8904 H         1 UNK         0.0888 
     75 H75        30.8094   26.5292   -0.4396 H         1 UNK         0.3017 
     76 H76        30.0642   24.7553    0.6500 H         1 UNK         0.0873 
     77 H77        30.7450   23.0389   -1.7990 H         1 UNK         0.0745 
     78 H78        31.8655   23.4817   -0.5542 H         1 UNK         0.0745 
     79 H79        31.5070   20.8434    2.0678 H         1 UNK         0.0705 
     80 H80        32.4894   22.0413    1.2669 H         1 UNK         0.0705 
     81 H81        32.6587   24.2076    2.2940 H         1 UNK         0.1334 
     82 H82        29.9454   25.3648    5.4038 H         1 UNK         0.1417 
     83 H83        29.3051   21.7102    3.2473 H         1 UNK         0.1562 
     84 H84        28.2614   23.7113    6.1861 H         1 UNK         0.0748 
     85 H85        28.0775   22.1871    5.3616 H         1 UNK         0.0748 
     86 H86        27.5869   25.8671    5.3367 H         1 UNK         0.0940 
     87 H87        26.0346   26.1706    4.6357 H         1 UNK         0.0940 
     88 H88        28.3297   25.5051    2.7503 H         1 UNK         0.0703 
     89 H89        26.8347   25.9959    1.2307 H         1 UNK         0.3081 
     90 H90        23.9988   28.1468    1.0576 H         1 UNK         0.0719 
     91 H91        26.5577   27.9187   -0.6216 H         1 UNK         0.0809 
     92 H92        25.0115   28.5701   -1.1637 H         1 UNK         0.0809 
     93 H93        25.9283   29.4009    0.0819 H         1 UNK         0.0809 
     94 H94        24.9908   26.0000   -0.5825 H         1 UNK         0.2990 
     95 H95        23.3459   23.3461    0.9030 H         1 UNK         0.0690 
     96 H96        21.7657   23.2013   -1.0179 H         1 UNK         0.0788 
     97 H97        21.9691   24.9242   -1.3405 H         1 UNK         0.0788 
     98 H98        21.2112   24.3865    0.1517 H         1 UNK         0.0788 
     99 H99        24.2029   24.0015   -1.8140 H         1 UNK         0.2993 
    100 H100       26.5830   22.0707   -1.9962 H         1 UNK         0.0949 
    101 H101       26.1948   25.0326   -2.7185 H         1 UNK         0.0767 
    102 H102       27.0245   23.8561   -3.7256 H         1 UNK         0.0767 
    103 H103       25.3174   23.6602   -3.4001 H         1 UNK         0.0767 
    104 H104       28.6470   22.6384   -1.4225 H         1 UNK         0.3013 
    105 H105       29.1337   27.5258    1.4634 H         1 UNK         0.3121 
    106 H106       30.6838   29.0678    3.4162 H         1 UNK         0.0774 
    107 H107       28.8079   30.6218    2.8908 H         1 UNK         0.0815 
    108 H108       29.0329   30.3577    1.1621 H         1 UNK         0.0815 
    109 H109       30.2714   31.1836    2.0955 H         1 UNK         0.0815 
    110 H110       32.6904   29.6589    2.5877 H         1 UNK         0.2987 
    111 H111       33.3651   28.8736   -0.2269 H         1 UNK         0.0949 
    112 H112       35.2398   29.1642    2.1884 H         1 UNK         0.0806 
    113 H113       34.7434   27.6349    1.4607 H         1 UNK         0.0806 
    114 H114       35.7160   28.7730    0.5427 H         1 UNK         0.0806 
    115 H115       33.7142   31.2649    2.4251 H         1 UNK         0.3010 
    116 H116       33.3919   33.4915    0.5519 H         1 UNK         0.0829 
    117 H117       35.3948   34.6904    1.5013 H         1 UNK         0.0813 
    118 H118       35.8861   33.2210    2.3349 H         1 UNK         0.0813 
    119 H119       35.8708   33.2758    0.5740 H         1 UNK         0.0813 
    120 H120       31.3972   33.5829    1.5748 H         1 UNK         0.3038 
    121 H121       29.7960   34.1576    2.9539 H         1 UNK         0.0769 
    122 H122       31.8821   35.3577    4.8498 H         1 UNK         0.0811 
    123 H123       30.1521   35.6472    4.8837 H         1 UNK         0.0811 
    124 H124       31.1008   36.2042    3.5148 H         1 UNK         0.0811 
    125 H125       32.4539   32.5151    4.5638 H         1 UNK         0.3204 
    126 H126       30.6949   30.3865    5.4615 H         1 UNK         0.0748 
    127 H127       31.4716   30.4177    7.8196 H         1 UNK         0.0771 
    128 H128       32.4810   31.8316    7.5134 H         1 UNK         0.0771 
    129 H129       30.7264   31.9595    7.4650 H         1 UNK         0.0771 
    130 H130       32.8119   29.0877    6.9665 H         1 UNK         0.2980 
    131 H131       35.2795   29.3217    5.5387 H         1 UNK         0.0545 
    132 H132       34.1039   29.4198    8.4476 H         1 UNK         0.3459 
    133 H133       35.2893   28.4622    9.2864 H         1 UNK         0.3459 
    134 H134       35.5495   27.0341    4.7333 H         1 UNK         0.0616 
    135 H135       34.2481   27.8397    3.9314 H         1 UNK         0.0616 
    136 H136       31.4954   27.0210    4.3596 H         1 UNK         0.0634 
    137 H137       32.6082   26.5061    3.1116 H         1 UNK         0.0634 
@<TRIPOS>BOND
     1    1    2 1    
     2    1   72 1    
     3    1   73 1    
     4    1   74 1    
     5    2    3 2    
     6    2    4 am   BACKBONE|DICT|INTERRES
     7    4    5 1    
     8    4   75 1    
     9    5    6 1    
    10    5   35 1    
    11    5   76 1    
    12    6    7 1    
    13    6   77 1    
    14    6   78 1    
    15    7    8 1    
    16    8    9 1    
    17    8   79 1    
    18    8   80 1    
    19    9   10 ar   
    20    9   14 ar   
    21   10   11 ar   
    22   10   81 1    
    23   11   12 ar   
    24   11   71 1    
    25   12   13 ar   
    26   12   82 1    
    27   13   14 ar   
    28   13   15 1    
    29   14   83 1    
    30   15   16 1    
    31   15   84 1    
    32   15   85 1    
    33   16   17 1    
    34   17   18 1    
    35   17   86 1    
    36   17   87 1    
    37   18   19 1    
    38   18   37 1    
    39   18   88 1    
    40   19   20 am   BACKBONE|DICT|INTERRES
    41   19   89 1    
    42   20   21 2    
    43   20   22 1    
    44   22   23 1    
    45   22   24 1    
    46   22   90 1    
    47   23   91 1    
    48   23   92 1    
    49   23   93 1    
    50   24   25 am   BACKBONE|DICT|INTERRES
    51   24   94 1    
    52   25   26 2    
    53   25   27 1    
    54   27   28 1    
    55   27   29 1    
    56   27   95 1    
    57   28   96 1    
    58   28   97 1    
    59   28   98 1    
    60   29   30 am   BACKBONE|DICT|INTERRES
    61   29   99 1    
    62   30   31 2    
    63   30   32 1    
    64   32   33 1    
    65   32   34 1    
    66   32  100 1    
    67   33  101 1    
    68   33  102 1    
    69   33  103 1    
    70   34   35 am   BACKBONE|DICT|INTERRES
    71   34  104 1    
    72   35   36 2    
    73   37   38 2    
    74   37   39 am   BACKBONE|DICT|INTERRES
    75   39   40 1    
    76   39  105 1    
    77   40   41 1    
    78   40   42 1    
    79   40  106 1    
    80   41  107 1    
    81   41  108 1    
    82   41  109 1    
    83   42   43 2    
    84   42   44 am   BACKBONE|DICT|INTERRES
    85   44   45 1    
    86   44  110 1    
    87   45   46 1    
    88   45   47 1    
    89   45  111 1    
    90   46  112 1    
    91   46  113 1    
    92   46  114 1    
    93   47   48 2    
    94   47   49 am   BACKBONE|DICT|INTERRES
    95   49   50 1    
    96   49  115 1    
    97   50   51 1    
    98   50   52 1    
    99   50  116 1    
   100   51  117 1    
   101   51  118 1    
   102   51  119 1    
   103   52   53 2    
   104   52   54 am   BACKBONE|DICT|INTERRES
   105   54   55 1    
   106   54  120 1    
   107   55   56 1    
   108   55   57 1    
   109   55  121 1    
   110   56  122 1    
   111   56  123 1    
   112   56  124 1    
   113   57   58 2    
   114   57   59 am   BACKBONE|DICT|INTERRES
   115   59   60 1    
   116   59  125 1    
   117   60   61 1    
   118   60   62 1    
   119   60  126 1    
   120   61  127 1    
   121   61  128 1    
   122   61  129 1    
   123   62   63 2    
   124   62   64 am   BACKBONE|DICT|INTERRES
   125   64   65 1    
   126   64  130 1    
   127   65   66 1    
   128   65   69 1    
   129   65  131 1    
   130   66   67 am   BACKBONE|DICT|INTERRES
   131   66   68 2    
   132   67  132 1    
   133   67  133 1    
   134   69   70 1    
   135   69  134 1    
   136   69  135 1    
   137   70   71 1    
   138   71  136 1    
   139   71  137 1    
@<TRIPOS>SUBSTRUCTURE
     1 UNK         1 GROUP             0       ****    0 ROOT    
