@<TRIPOS>MOLECULE
3R136
137   139    1
SMALL
USER_CHARGES


@<TRIPOS>ATOM
      1 CA         28.2496   23.1603   -5.2534 C.3       0 UNK        -0.1979 
      2 C          28.0118   24.0655   -4.0538 C.2       0 UNK         0.4864 
      3 O          26.9986   24.7635   -4.0057 O.2       0 UNK        -0.5359 
      4 N          28.9403   24.0618   -3.0883 N.am      1 UNK        -0.4318 
      5 CA         28.8646   24.8404   -1.8461 C.3       1 UNK         0.0824 
      6 C6         30.2589   25.0210   -1.1940 C.3       12 UNK        -0.0944 
      7 S7         31.1213   23.4450   -0.8630 S.3       12 UNK        -0.2672 
      8 C8         32.3308   23.9611    0.4007 C.3       12 UNK         0.0333 
      9 C9         31.7814   24.1819    1.8129 C.ar      12 UNK        -0.0807 
     10 C10        32.5759   24.8937    2.7190 C.ar      12 UNK        -0.0894 
     11 C11        32.1731   25.0697    4.0453 C.ar      12 UNK        -0.0804 
     12 C12        30.9588   24.5248    4.4669 C.ar      12 UNK        -0.0824 
     13 C13        30.1368   23.8336    3.5743 C.ar      12 UNK        -0.0762 
     14 C14        30.5538   23.6583    2.2499 C.ar      12 UNK        -0.0782 
     15 C15        28.8178   23.2507    4.0670 C.3       12 UNK         0.0230 
     16 S16        27.3603   24.2095    3.5369 S.3       12 UNK        -0.2608 
     17 C17        27.7441   25.9184    4.0788 C.3       12 UNK        -0.0989 
     18 CA         27.9741   26.8403    2.8506 C.3       5 UNK         0.0716 
     19 N          26.8079   26.8718    1.9588 N.am      5 UNK        -0.4135 
     20 C          25.6124   27.4274    2.2075 C.2       4 UNK         0.5031 
     21 O          25.3617   28.1414    3.1785 O.2       4 UNK        -0.5229 
     22 CA         24.4878   27.0568    1.2374 C.3       4 UNK         0.0329 
     23 CB         24.7569   27.5573   -0.1938 C.3       4 UNK        -0.2001 
     24 N          24.3269   25.6053    1.2587 N.am      4 UNK        -0.4303 
     25 C          23.1722   24.9406    1.1373 C.2       3 UNK         0.5044 
     26 O          22.0912   25.4873    0.9104 O.2       3 UNK        -0.5152 
     27 CA         23.2300   23.4099    1.3414 C.3       3 UNK         0.0319 
     28 CB         22.1308   22.6572    0.5603 C.3       3 UNK        -0.2001 
     29 N          24.5597   22.8313    1.0940 N.am      3 UNK        -0.4354 
     30 C          25.2164   22.7890   -0.0747 C.2       2 UNK         0.4964 
     31 O          24.7442   23.1488   -1.1550 O.2       2 UNK        -0.5047 
     32 CA         26.6536   22.2433   -0.0158 C.3       2 UNK         0.0288 
     33 CB         26.6810   20.7477   -0.3690 C.3       2 UNK        -0.2113 
     34 N          27.5644   22.9640   -0.9076 N.am      2 UNK        -0.4145 
     35 C          27.8465   24.2740   -0.8346 C.2       1 UNK         0.5006 
     36 O          27.3577   25.0336    0.0025 O.2       1 UNK        -0.5103 
     37 C          28.5105   28.2485    3.1963 C.2       5 UNK         0.5055 
     38 O          29.0012   28.4783    4.3021 O.2       5 UNK        -0.5220 
     39 N          28.4206   29.1631    2.2196 N.am      6 UNK        -0.4450 
     40 CA         28.9457   30.5302    2.2835 C.3       6 UNK         0.0367 
     41 CB         28.0037   31.4577    1.4978 C.3       6 UNK        -0.1929 
     42 C          30.3836   30.6371    1.7397 C.2       6 UNK         0.5070 
     43 O          30.9745   31.7164    1.8169 O.2       6 UNK        -0.5237 
     44 N          30.9168   29.5355    1.1902 N.am      7 UNK        -0.4739 
     45 CA         32.2575   29.4147    0.6109 C.3       7 UNK         0.0276 
     46 CB         32.4533   27.9718    0.1191 C.3       7 UNK        -0.1927 
     47 C          33.3755   29.7991    1.5944 C.2       7 UNK         0.5013 
     48 O          33.2355   29.5684    2.7967 O.2       7 UNK        -0.5193 
     49 N          34.4576   30.3821    1.0580 N.am      8 UNK        -0.4253 
     50 CA         35.6181   30.9120    1.7886 C.3       8 UNK         0.0242 
     51 CB         36.4402   29.7645    2.4155 C.3       8 UNK        -0.2000 
     52 C          35.2325   32.0031    2.8097 C.2       8 UNK         0.4948 
     53 O          35.7554   32.0101    3.9250 O.2       8 UNK        -0.5275 
     54 N          34.3043   32.8878    2.4075 N.am      9 UNK        -0.4246 
     55 CA         33.7109   33.9743    3.1990 C.3       9 UNK         0.0261 
     56 CB         34.7500   35.0855    3.4625 C.3       9 UNK        -0.1959 
     57 C          33.0442   33.4525    4.4870 C.2       9 UNK         0.5033 
     58 O          33.3730   33.9103    5.5834 O.2       9 UNK        -0.5390 
     59 N          32.1380   32.4794    4.3131 N.am      10 UNK        -0.4215 
     60 CA         31.4586   31.7027    5.3551 C.3       10 UNK         0.0240 
     61 CB         30.4982   32.5891    6.1769 C.3       10 UNK        -0.1982 
     62 C          32.4470   30.8960    6.2185 C.2       10 UNK         0.4970 
     63 O          32.4114   30.9831    7.4480 O.2       10 UNK        -0.4916 
     64 N          33.2911   30.1076    5.5414 N.am      11 UNK        -0.4279 
     65 CA         34.2233   29.1282    6.1188 C.3       11 UNK         0.1003 
     66 C          35.3607   29.7616    6.9732 C.2       11 UNK         0.5709 
     67 N          35.9063   30.9041    6.5766 N.am      11 UNK        -0.7358 
     68 O          35.7710   29.2137    7.9946 O.2       11 UNK        -0.4999 
     69 C69        33.4948   27.9491    6.8297 C.3       12 UNK        -0.0954 
     70 S70        32.1771   27.2058    5.8082 S.3       12 UNK        -0.2268 
     71 C71        33.0602   25.8193    5.0312 C.3       12 UNK         0.0203 
     72 H72        27.4366   22.4408   -5.3472 H         1 UNK         0.0888 
     73 H73        28.2887   23.7518   -6.1677 H         1 UNK         0.0888 
     74 H74        29.1844   22.6065   -5.1680 H         1 UNK         0.0888 
     75 H75        29.7614   23.4792   -3.1811 H         1 UNK         0.3017 
     76 H76        28.5023   25.8372   -2.1080 H         1 UNK         0.0873 
     77 H77        30.1767   25.5920   -0.2666 H         1 UNK         0.0745 
     78 H78        30.8936   25.6161   -1.8523 H         1 UNK         0.0745 
     79 H79        32.8296   24.8659    0.0500 H         1 UNK         0.0705 
     80 H80        33.1015   23.1915    0.4587 H         1 UNK         0.0705 
     81 H81        33.5258   25.2964    2.3940 H         1 UNK         0.1334 
     82 H82        30.6504   24.6501    5.4960 H         1 UNK         0.1417 
     83 H83        29.9218   23.0997    1.5741 H         1 UNK         0.1562 
     84 H84        28.8127   23.1807    5.1559 H         1 UNK         0.0748 
     85 H85        28.7161   22.2283    3.7002 H         1 UNK         0.0748 
     86 H86        28.6132   25.9131    4.7365 H         1 UNK         0.0940 
     87 H87        26.9165   26.2890    4.6856 H         1 UNK         0.0940 
     88 H88        28.7736   26.3847    2.2633 H         1 UNK         0.0703 
     89 H89        26.9097   26.2805    1.1328 H         1 UNK         0.3081 
     90 H90        23.5733   27.5290    1.6034 H         1 UNK         0.0719 
     91 H91        25.6251   27.0739   -0.6426 H         1 UNK         0.0809 
     92 H92        23.9020   27.3639   -0.8419 H         1 UNK         0.0809 
     93 H93        24.9350   28.6333   -0.2049 H         1 UNK         0.0809 
     94 H94        25.1613   25.0722    1.4645 H         1 UNK         0.2990 
     95 H95        23.0342   23.2515    2.4030 H         1 UNK         0.0690 
     96 H96        22.1940   21.5812    0.7224 H         1 UNK         0.0788 
     97 H97        22.1955   22.8403   -0.5125 H         1 UNK         0.0788 
     98 H98        21.1376   22.9735    0.8812 H         1 UNK         0.0788 
     99 H99        25.0386   22.4945    1.9189 H         1 UNK         0.2993 
    100 H100       27.0343   22.3680    1.0003 H         1 UNK         0.0949 
    101 H101       27.6856   20.3349   -0.2737 H         1 UNK         0.0767 
    102 H102       26.0329   20.1764    0.2971 H         1 UNK         0.0767 
    103 H103       26.3383   20.5692   -1.3893 H         1 UNK         0.0767 
    104 H104       28.0009   22.4274   -1.6415 H         1 UNK         0.3013 
    105 H105       27.9784   28.8898    1.3535 H         1 UNK         0.3121 
    106 H106       28.9615   30.8670    3.3219 H         1 UNK         0.0774 
    107 H107       28.3346   32.4953    1.5609 H         1 UNK         0.0815 
    108 H108       27.9625   31.1930    0.4406 H         1 UNK         0.0815 
    109 H109       26.9889   31.4194    1.8944 H         1 UNK         0.0815 
    110 H110       30.3645   28.6930    1.2118 H         1 UNK         0.2987 
    111 H111       32.3024   30.0898   -0.2462 H         1 UNK         0.0949 
    112 H112       33.4436   27.8333   -0.3171 H         1 UNK         0.0806 
    113 H113       32.3536   27.2554    0.9354 H         1 UNK         0.0806 
    114 H114       31.7250   27.7126   -0.6489 H         1 UNK         0.0806 
    115 H115       34.4788   30.5171    0.0561 H         1 UNK         0.3010 
    116 H116       36.2527   31.4036    1.0496 H         1 UNK         0.0829 
    117 H117       36.7262   29.0265    1.6663 H         1 UNK         0.0813 
    118 H118       37.3596   30.1417    2.8649 H         1 UNK         0.0813 
    119 H119       35.8855   29.2482    3.1987 H         1 UNK         0.0813 
    120 H120       33.9188   32.7680    1.4810 H         1 UNK         0.3038 
    121 H121       32.9133   34.4050    2.5913 H         1 UNK         0.0769 
    122 H122       34.2924   35.9333    3.9739 H         1 UNK         0.0811 
    123 H123       35.1755   35.4599    2.5316 H         1 UNK         0.0811 
    124 H124       35.5707   34.7337    4.0887 H         1 UNK         0.0811 
    125 H125       31.9239   32.1955    3.3581 H         1 UNK         0.3204 
    126 H126       30.8506   30.9611    4.8356 H         1 UNK         0.0748 
    127 H127       29.9157   31.9861    6.8745 H         1 UNK         0.0771 
    128 H128       31.0335   33.3364    6.7632 H         1 UNK         0.0771 
    129 H129       29.7915   33.1107    5.5315 H         1 UNK         0.0771 
    130 H130       33.2358   30.0817    4.5245 H         1 UNK         0.2980 
    131 H131       34.7395   28.6948    5.2625 H         1 UNK         0.0545 
    132 H132       36.6421   31.3142    7.1279 H         1 UNK         0.3459 
    133 H133       35.6409   31.3339    5.6935 H         1 UNK         0.3459 
    134 H134       34.2068   27.1709    7.1096 H         1 UNK         0.0616 
    135 H135       33.0407   28.2913    7.7609 H         1 UNK         0.0616 
    136 H136       33.4019   25.1287    5.8032 H         1 UNK         0.0634 
    137 H137       33.9511   26.2059    4.5337 H         1 UNK         0.0634 
@<TRIPOS>BOND
     1    1    2 1    
     2    1   72 1    
     3    1   73 1    
     4    1   74 1    
     5    2    3 2    
     6    2    4 am   BACKBONE|DICT|INTERRES
     7    4    5 1    
     8    4   75 1    
     9    5    6 1    
    10    5   35 1    
    11    5   76 1    
    12    6    7 1    
    13    6   77 1    
    14    6   78 1    
    15    7    8 1    
    16    8    9 1    
    17    8   79 1    
    18    8   80 1    
    19    9   10 ar   
    20    9   14 ar   
    21   10   11 ar   
    22   10   81 1    
    23   11   12 ar   
    24   11   71 1    
    25   12   13 ar   
    26   12   82 1    
    27   13   14 ar   
    28   13   15 1    
    29   14   83 1    
    30   15   16 1    
    31   15   84 1    
    32   15   85 1    
    33   16   17 1    
    34   17   18 1    
    35   17   86 1    
    36   17   87 1    
    37   18   19 1    
    38   18   37 1    
    39   18   88 1    
    40   19   20 am   BACKBONE|DICT|INTERRES
    41   19   89 1    
    42   20   21 2    
    43   20   22 1    
    44   22   23 1    
    45   22   24 1    
    46   22   90 1    
    47   23   91 1    
    48   23   92 1    
    49   23   93 1    
    50   24   25 am   BACKBONE|DICT|INTERRES
    51   24   94 1    
    52   25   26 2    
    53   25   27 1    
    54   27   28 1    
    55   27   29 1    
    56   27   95 1    
    57   28   96 1    
    58   28   97 1    
    59   28   98 1    
    60   29   30 am   BACKBONE|DICT|INTERRES
    61   29   99 1    
    62   30   31 2    
    63   30   32 1    
    64   32   33 1    
    65   32   34 1    
    66   32  100 1    
    67   33  101 1    
    68   33  102 1    
    69   33  103 1    
    70   34   35 am   BACKBONE|DICT|INTERRES
    71   34  104 1    
    72   35   36 2    
    73   37   38 2    
    74   37   39 am   BACKBONE|DICT|INTERRES
    75   39   40 1    
    76   39  105 1    
    77   40   41 1    
    78   40   42 1    
    79   40  106 1    
    80   41  107 1    
    81   41  108 1    
    82   41  109 1    
    83   42   43 2    
    84   42   44 am   BACKBONE|DICT|INTERRES
    85   44   45 1    
    86   44  110 1    
    87   45   46 1    
    88   45   47 1    
    89   45  111 1    
    90   46  112 1    
    91   46  113 1    
    92   46  114 1    
    93   47   48 2    
    94   47   49 am   BACKBONE|DICT|INTERRES
    95   49   50 1    
    96   49  115 1    
    97   50   51 1    
    98   50   52 1    
    99   50  116 1    
   100   51  117 1    
   101   51  118 1    
   102   51  119 1    
   103   52   53 2    
   104   52   54 am   BACKBONE|DICT|INTERRES
   105   54   55 1    
   106   54  120 1    
   107   55   56 1    
   108   55   57 1    
   109   55  121 1    
   110   56  122 1    
   111   56  123 1    
   112   56  124 1    
   113   57   58 2    
   114   57   59 am   BACKBONE|DICT|INTERRES
   115   59   60 1    
   116   59  125 1    
   117   60   61 1    
   118   60   62 1    
   119   60  126 1    
   120   61  127 1    
   121   61  128 1    
   122   61  129 1    
   123   62   63 2    
   124   62   64 am   BACKBONE|DICT|INTERRES
   125   64   65 1    
   126   64  130 1    
   127   65   66 1    
   128   65   69 1    
   129   65  131 1    
   130   66   67 am   BACKBONE|DICT|INTERRES
   131   66   68 2    
   132   67  132 1    
   133   67  133 1    
   134   69   70 1    
   135   69  134 1    
   136   69  135 1    
   137   70   71 1    
   138   71  136 1    
   139   71  137 1    
@<TRIPOS>SUBSTRUCTURE
     1 UNK         1 GROUP             0       ****    0 ROOT    
