@<TRIPOS>MOLECULE
3R136
137   139    1
SMALL
USER_CHARGES


@<TRIPOS>ATOM
      1 CA         28.5607   19.2781    3.9483 C.3       0 UNK        -0.1979 
      2 C          28.1707   20.0065    2.6707 C.2       0 UNK         0.4864 
      3 O          27.5200   19.4184    1.8060 O.2       0 UNK        -0.5359 
      4 N          28.5643   21.2815    2.5463 N.am      1 UNK        -0.4318 
      5 CA         28.2962   22.1336    1.3783 C.3       1 UNK         0.0824 
      6 C6         29.1915   23.3978    1.3567 C.3       12 UNK        -0.0944 
      7 S7         30.9747   23.0162    1.4447 S.3       12 UNK        -0.2672 
      8 C8         31.4519   23.7992    3.0192 C.3       12 UNK         0.0333 
      9 C9         31.5239   25.3144    2.8950 C.ar      12 UNK        -0.0807 
     10 C10        32.6576   25.9168    2.3443 C.ar      12 UNK        -0.0894 
     11 C11        32.7421   27.3075    2.2294 C.ar      12 UNK        -0.0804 
     12 C12        31.6674   28.0979    2.6511 C.ar      12 UNK        -0.0824 
     13 C13        30.5241   27.5049    3.2000 C.ar      12 UNK        -0.0762 
     14 C14        30.4654   26.1151    3.3319 C.ar      12 UNK        -0.0782 
     15 C15        29.3537   28.3562    3.6755 C.3       12 UNK         0.0230 
     16 S16        27.9036   28.1867    2.5848 S.3       12 UNK        -0.2608 
     17 C17        28.5167   29.0077    1.0815 C.3       12 UNK        -0.0989 
     18 CA         28.9365   27.9959   -0.0095 C.3       5 UNK         0.0716 
     19 N          27.7787   27.3225   -0.5982 N.am      5 UNK        -0.4135 
     20 C          27.8342   26.2550   -1.4017 C.2       4 UNK         0.5031 
     21 O          28.8808   25.6647   -1.6762 O.2       4 UNK        -0.5229 
     22 CA         26.4963   25.7725   -1.9963 C.3       4 UNK         0.0329 
     23 CB         26.6460   24.4887   -2.8348 C.3       4 UNK        -0.2001 
     24 N          25.4670   25.5629   -0.9718 N.am      4 UNK        -0.4303 
     25 C          24.6998   26.5311   -0.4477 C.2       3 UNK         0.5044 
     26 O          24.8472   27.7236   -0.7202 O.2       3 UNK        -0.5152 
     27 CA         23.5767   26.1282    0.5268 C.3       3 UNK         0.0319 
     28 CB         22.2134   26.1787   -0.1826 C.3       3 UNK        -0.2001 
     29 N          23.7557   24.7996    1.1142 N.am      3 UNK        -0.4354 
     30 C          24.5992   24.5223    2.1160 C.2       2 UNK         0.4964 
     31 O          25.2888   25.3705    2.6830 O.2       2 UNK        -0.5047 
     32 CA         24.7187   23.0512    2.5598 C.3       2 UNK         0.0288 
     33 CB         23.7230   22.0862    1.8732 C.3       2 UNK        -0.2113 
     34 N          26.0971   22.5758    2.4026 N.am      2 UNK        -0.4145 
     35 C          26.8135   22.5488    1.2661 C.2       1 UNK         0.5006 
     36 O          26.3575   22.8569    0.1633 O.2       1 UNK        -0.5103 
     37 C          29.7602   28.7125   -1.0956 C.2       5 UNK         0.5055 
     38 O          29.1838   29.3657   -1.9690 O.2       5 UNK        -0.5220 
     39 N          31.0904   28.6165   -0.9858 N.am      6 UNK        -0.4450 
     40 CA         32.0534   29.2908   -1.8633 C.3       6 UNK         0.0367 
     41 CB         33.1773   28.3004   -2.2188 C.3       6 UNK        -0.1929 
     42 C          32.6219   30.5832   -1.2417 C.2       6 UNK         0.5070 
     43 O          33.5209   31.1849   -1.8302 O.2       6 UNK        -0.5237 
     44 N          32.1140   30.9891   -0.0716 N.am      7 UNK        -0.4739 
     45 CA         32.5239   32.1763    0.6758 C.3       7 UNK         0.0276 
     46 CB         33.7510   31.8456    1.5449 C.3       7 UNK        -0.1927 
     47 C          31.3493   32.6583    1.5374 C.2       7 UNK         0.5013 
     48 O          30.3496   31.9483    1.6645 O.2       7 UNK        -0.5193 
     49 N          31.4964   33.8518    2.1263 N.am      8 UNK        -0.4253 
     50 CA         30.4891   34.5008    2.9753 C.3       8 UNK         0.0242 
     51 CB         30.8279   35.9977    3.0857 C.3       8 UNK        -0.2000 
     52 C          30.3309   33.8800    4.3793 C.2       8 UNK         0.4948 
     53 O          29.3834   34.2348    5.0826 O.2       8 UNK        -0.5275 
     54 N          31.2468   32.9893    4.7730 N.am      9 UNK        -0.4246 
     55 CA         31.2427   32.2494    6.0317 C.3       9 UNK         0.0261 
     56 CB         32.1644   32.9555    7.0415 C.3       9 UNK        -0.1959 
     57 C          31.7208   30.8209    5.7486 C.2       9 UNK         0.5033 
     58 O          32.3290   30.5845    4.7023 O.2       9 UNK        -0.5390 
     59 N          31.4357   29.8993    6.6780 N.am      10 UNK        -0.4215 
     60 CA         31.8038   28.4841    6.5923 C.3       10 UNK         0.0240 
     61 CB         31.1407   27.7083    7.7421 C.3       10 UNK        -0.1982 
     62 C          33.3266   28.2776    6.5922 C.2       10 UNK         0.4970 
     63 O          33.9957   28.7123    7.5323 O.2       10 UNK        -0.4916 
     64 N          33.8326   27.6133    5.5475 N.am      11 UNK        -0.4279 
     65 CA         35.2645   27.3361    5.3492 C.3       11 UNK         0.1003 
     66 C          35.8078   26.1313    6.1710 C.2       11 UNK         0.5709 
     67 N          34.9708   25.3461    6.8394 N.am      11 UNK        -0.7358 
     68 O          37.0160   25.9110    6.2118 O.2       11 UNK        -0.4999 
     69 C69        35.6241   27.1990    3.8456 C.3       12 UNK        -0.0954 
     70 S70        35.1082   28.6556    2.8733 S.3       12 UNK        -0.2268 
     71 C71        33.9873   27.9453    1.6261 C.3       12 UNK         0.0203 
     72 H72        29.1635   18.4020    3.7110 H         1 UNK         0.0888 
     73 H73        29.1369   19.9131    4.6211 H         1 UNK         0.0888 
     74 H74        27.6684   18.9448    4.4776 H         1 UNK         0.0888 
     75 H75        29.1228   21.7012    3.2751 H         1 UNK         0.3017 
     76 H76        28.5254   21.5479    0.4852 H         1 UNK         0.0873 
     77 H77        29.0272   23.9599    0.4358 H         1 UNK         0.0745 
     78 H78        28.9148   24.0712    2.1681 H         1 UNK         0.0745 
     79 H79        30.7553   23.5058    3.8058 H         1 UNK         0.0705 
     80 H80        32.4274   23.4141    3.3201 H         1 UNK         0.0705 
     81 H81        33.4755   25.2966    2.0031 H         1 UNK         0.1334 
     82 H82        31.7287   29.1748    2.5648 H         1 UNK         0.1417 
     83 H83        29.5849   25.6608    3.7653 H         1 UNK         0.1562 
     84 H84        29.6384   29.4076    3.7473 H         1 UNK         0.0748 
     85 H85        29.0709   28.0493    4.6834 H         1 UNK         0.0748 
     86 H86        29.3543   29.6448    1.3632 H         1 UNK         0.0940 
     87 H87        27.7444   29.6838    0.7093 H         1 UNK         0.0940 
     88 H88        29.5665   27.2279    0.4456 H         1 UNK         0.0703 
     89 H89        26.8732   27.7530   -0.4482 H         1 UNK         0.3081 
     90 H90        26.1562   26.5582   -2.6745 H         1 UNK         0.0719 
     91 H91        27.3337   24.6450   -3.6669 H         1 UNK         0.0809 
     92 H92        27.0376   23.6610   -2.2432 H         1 UNK         0.0809 
     93 H93        25.6919   24.1766   -3.2596 H         1 UNK         0.0809 
     94 H94        25.3664   24.6140   -0.6293 H         1 UNK         0.2990 
     95 H95        23.5658   26.8662    1.3321 H         1 UNK         0.0690 
     96 H96        22.0294   27.1675   -0.6053 H         1 UNK         0.0788 
     97 H97        21.3976   25.9681    0.5093 H         1 UNK         0.0788 
     98 H98        22.1560   25.4592   -1.0005 H         1 UNK         0.0788 
     99 H99        23.2376   24.0395    0.6970 H         1 UNK         0.2993 
    100 H100       24.5040   23.0408    3.6296 H         1 UNK         0.0949 
    101 H101       23.8308   21.0754    2.2671 H         1 UNK         0.0767 
    102 H102       22.6905   22.3877    2.0553 H         1 UNK         0.0767 
    103 H103       23.8709   22.0308    0.7941 H         1 UNK         0.0767 
    104 H104       26.5736   22.3273    3.2576 H         1 UNK         0.3013 
    105 H105       31.4790   28.0561   -0.2397 H         1 UNK         0.3121 
    106 H106       31.5653   29.5822   -2.7958 H         1 UNK         0.0774 
    107 H107       33.8839   28.7445   -2.9212 H         1 UNK         0.0815 
    108 H108       33.7442   27.9909   -1.3415 H         1 UNK         0.0815 
    109 H109       32.7777   27.4034   -2.6922 H         1 UNK         0.0815 
    110 H110       31.3119   30.5120    0.3178 H         1 UNK         0.2987 
    111 H111       32.7752   32.9738   -0.0272 H         1 UNK         0.0949 
    112 H112       33.5102   31.1036    2.3064 H         1 UNK         0.0806 
    113 H113       34.5727   31.4530    0.9457 H         1 UNK         0.0806 
    114 H114       34.1255   32.7303    2.0605 H         1 UNK         0.0806 
    115 H115       32.3540   34.3647    1.9776 H         1 UNK         0.3010 
    116 H116       29.5205   34.4085    2.4790 H         1 UNK         0.0829 
    117 H117       31.7913   36.1587    3.5713 H         1 UNK         0.0813 
    118 H118       30.8609   36.4719    2.1046 H         1 UNK         0.0813 
    119 H119       30.0759   36.5277    3.6722 H         1 UNK         0.0813 
    120 H120       31.9420   32.6703    4.1103 H         1 UNK         0.3038 
    121 H121       30.2277   32.1966    6.4316 H         1 UNK         0.0769 
    122 H122       33.1927   33.0044    6.6807 H         1 UNK         0.0811 
    123 H123       32.1782   32.4315    7.9979 H         1 UNK         0.0811 
    124 H124       31.8298   33.9746    7.2362 H         1 UNK         0.0811 
    125 H125       30.9662   30.1910    7.5230 H         1 UNK         0.3204 
    126 H126       31.4037   28.0957    5.6580 H         1 UNK         0.0748 
    127 H127       31.3824   26.6460    7.6864 H         1 UNK         0.0771 
    128 H128       31.4732   28.0674    8.7171 H         1 UNK         0.0771 
    129 H129       30.0545   27.7934    7.7043 H         1 UNK         0.0771 
    130 H130       33.2215   27.3223    4.7979 H         1 UNK         0.2980 
    131 H131       35.8135   28.2036    5.7208 H         1 UNK         0.0545 
    132 H132       35.3383   24.5732    7.3716 H         1 UNK         0.3459 
    133 H133       33.9794   25.5185    6.8160 H         1 UNK         0.3459 
    134 H134       35.1886   26.2921    3.4266 H         1 UNK         0.0616 
    135 H135       36.7036   27.0960    3.7225 H         1 UNK         0.0616 
    136 H136       33.6893   28.7446    0.9487 H         1 UNK         0.0634 
    137 H137       34.5386   27.2225    1.0228 H         1 UNK         0.0634 
@<TRIPOS>BOND
     1    1    2 1    
     2    1   72 1    
     3    1   73 1    
     4    1   74 1    
     5    2    3 2    
     6    2    4 am   BACKBONE|DICT|INTERRES
     7    4    5 1    
     8    4   75 1    
     9    5    6 1    
    10    5   35 1    
    11    5   76 1    
    12    6    7 1    
    13    6   77 1    
    14    6   78 1    
    15    7    8 1    
    16    8    9 1    
    17    8   79 1    
    18    8   80 1    
    19    9   10 ar   
    20    9   14 ar   
    21   10   11 ar   
    22   10   81 1    
    23   11   12 ar   
    24   11   71 1    
    25   12   13 ar   
    26   12   82 1    
    27   13   14 ar   
    28   13   15 1    
    29   14   83 1    
    30   15   16 1    
    31   15   84 1    
    32   15   85 1    
    33   16   17 1    
    34   17   18 1    
    35   17   86 1    
    36   17   87 1    
    37   18   19 1    
    38   18   37 1    
    39   18   88 1    
    40   19   20 am   BACKBONE|DICT|INTERRES
    41   19   89 1    
    42   20   21 2    
    43   20   22 1    
    44   22   23 1    
    45   22   24 1    
    46   22   90 1    
    47   23   91 1    
    48   23   92 1    
    49   23   93 1    
    50   24   25 am   BACKBONE|DICT|INTERRES
    51   24   94 1    
    52   25   26 2    
    53   25   27 1    
    54   27   28 1    
    55   27   29 1    
    56   27   95 1    
    57   28   96 1    
    58   28   97 1    
    59   28   98 1    
    60   29   30 am   BACKBONE|DICT|INTERRES
    61   29   99 1    
    62   30   31 2    
    63   30   32 1    
    64   32   33 1    
    65   32   34 1    
    66   32  100 1    
    67   33  101 1    
    68   33  102 1    
    69   33  103 1    
    70   34   35 am   BACKBONE|DICT|INTERRES
    71   34  104 1    
    72   35   36 2    
    73   37   38 2    
    74   37   39 am   BACKBONE|DICT|INTERRES
    75   39   40 1    
    76   39  105 1    
    77   40   41 1    
    78   40   42 1    
    79   40  106 1    
    80   41  107 1    
    81   41  108 1    
    82   41  109 1    
    83   42   43 2    
    84   42   44 am   BACKBONE|DICT|INTERRES
    85   44   45 1    
    86   44  110 1    
    87   45   46 1    
    88   45   47 1    
    89   45  111 1    
    90   46  112 1    
    91   46  113 1    
    92   46  114 1    
    93   47   48 2    
    94   47   49 am   BACKBONE|DICT|INTERRES
    95   49   50 1    
    96   49  115 1    
    97   50   51 1    
    98   50   52 1    
    99   50  116 1    
   100   51  117 1    
   101   51  118 1    
   102   51  119 1    
   103   52   53 2    
   104   52   54 am   BACKBONE|DICT|INTERRES
   105   54   55 1    
   106   54  120 1    
   107   55   56 1    
   108   55   57 1    
   109   55  121 1    
   110   56  122 1    
   111   56  123 1    
   112   56  124 1    
   113   57   58 2    
   114   57   59 am   BACKBONE|DICT|INTERRES
   115   59   60 1    
   116   59  125 1    
   117   60   61 1    
   118   60   62 1    
   119   60  126 1    
   120   61  127 1    
   121   61  128 1    
   122   61  129 1    
   123   62   63 2    
   124   62   64 am   BACKBONE|DICT|INTERRES
   125   64   65 1    
   126   64  130 1    
   127   65   66 1    
   128   65   69 1    
   129   65  131 1    
   130   66   67 am   BACKBONE|DICT|INTERRES
   131   66   68 2    
   132   67  132 1    
   133   67  133 1    
   134   69   70 1    
   135   69  134 1    
   136   69  135 1    
   137   70   71 1    
   138   71  136 1    
   139   71  137 1    
@<TRIPOS>SUBSTRUCTURE
     1 UNK         1 GROUP             0       ****    0 ROOT    
