@<TRIPOS>MOLECULE
3R136
137   139    1
SMALL
USER_CHARGES


@<TRIPOS>ATOM
      1 CA         28.9054   20.5471   -0.0082 C.3       0 UNK        -0.1979 
      2 C          29.0203   21.6148   -1.0861 C.2       0 UNK         0.4864 
      3 O          28.7915   21.3236   -2.2614 O.2       0 UNK        -0.5359 
      4 N          29.3777   22.8446   -0.6964 N.am      1 UNK        -0.4318 
      5 CA         29.4693   24.0051   -1.5878 C.3       1 UNK         0.0824 
      6 C6         30.4209   25.0901   -1.0258 C.3       12 UNK        -0.0944 
      7 S7         32.1636   24.5509   -1.0959 S.3       12 UNK        -0.2672 
      8 C8         32.9346   25.5000    0.2656 C.3       12 UNK         0.0333 
      9 C9         32.7514   24.9379    1.6791 C.ar      12 UNK        -0.0807 
     10 C10        33.4685   25.5316    2.7248 C.ar      12 UNK        -0.0894 
     11 C11        33.3638   25.0540    4.0384 C.ar      12 UNK        -0.0804 
     12 C12        32.5174   23.9739    4.3006 C.ar      12 UNK        -0.0824 
     13 C13        31.7934   23.3676    3.2717 C.ar      12 UNK        -0.0762 
     14 C14        31.9198   23.8478    1.9666 C.ar      12 UNK        -0.0782 
     15 C15        30.8891   22.1790    3.5654 C.3       12 UNK         0.0230 
     16 S16        29.1261   22.6197    3.4562 S.3       12 UNK        -0.2608 
     17 C17        28.9742   23.8778    4.7719 C.3       12 UNK        -0.0989 
     18 CA         28.8049   25.3038    4.1921 C.3       5 UNK         0.0716 
     19 N          27.6132   25.3837    3.3317 N.am      5 UNK        -0.4135 
     20 C          27.2147   26.4476    2.6256 C.2       4 UNK         0.5031 
     21 O          27.7511   27.5518    2.7069 O.2       4 UNK        -0.5229 
     22 CA         25.9875   26.2400    1.7286 C.3       4 UNK         0.0329 
     23 CB         24.6834   26.6093    2.4637 C.3       4 UNK        -0.2001 
     24 N          26.1248   26.9235    0.4372 N.am      4 UNK        -0.4303 
     25 C          26.0015   28.2275    0.1362 C.2       3 UNK         0.5044 
     26 O          25.6585   29.0958    0.9387 O.2       3 UNK        -0.5152 
     27 CA         26.2923   28.6502   -1.3218 C.3       3 UNK         0.0319 
     28 CB         27.3492   29.7667   -1.3955 C.3       3 UNK        -0.2001 
     29 N          26.7113   27.5436   -2.1894 N.am      3 UNK        -0.4354 
     30 C          25.8774   26.6782   -2.7817 C.2       2 UNK         0.4964 
     31 O          24.6506   26.7520   -2.7102 O.2       2 UNK        -0.5047 
     32 CA         26.5151   25.5177   -3.5681 C.3       2 UNK         0.0288 
     33 CB         26.6423   25.8873   -5.0552 C.3       2 UNK        -0.2113 
     34 N          27.8224   25.0651   -3.0697 N.am      2 UNK        -0.4145 
     35 C          28.0587   24.5713   -1.8447 C.2       1 UNK         0.5006 
     36 O          27.2240   24.5669   -0.9363 O.2       1 UNK        -0.5103 
     37 C          28.8534   26.3538    5.3265 C.2       5 UNK         0.5055 
     38 O          29.9339   26.6271    5.8480 O.2       5 UNK        -0.5220 
     39 N          27.6950   26.9201    5.6890 N.am      6 UNK        -0.4450 
     40 CA         27.5577   27.9925    6.6713 C.3       6 UNK         0.0367 
     41 CB         26.1149   27.9886    7.2045 C.3       6 UNK        -0.1929 
     42 C          27.9218   29.3898    6.1314 C.2       6 UNK         0.5070 
     43 O          28.1023   30.2913    6.9521 O.2       6 UNK        -0.5237 
     44 N          27.9952   29.5720    4.8029 N.am      7 UNK        -0.4739 
     45 CA         28.1932   30.8842    4.1715 C.3       7 UNK         0.0276 
     46 CB         26.8224   31.4447    3.7521 C.3       7 UNK        -0.1927 
     47 C          29.1647   30.8874    2.9774 C.2       7 UNK         0.5013 
     48 O          29.6307   31.9666    2.6067 O.2       7 UNK        -0.5193 
     49 N          29.4311   29.7263    2.3648 N.am      8 UNK        -0.4253 
     50 CA         30.3032   29.5769    1.1979 C.3       8 UNK         0.0242 
     51 CB         30.1872   28.1400    0.6688 C.3       8 UNK        -0.2000 
     52 C          31.7750   29.8999    1.4996 C.2       8 UNK         0.4948 
     53 O          32.2700   29.5570    2.5741 O.2       8 UNK        -0.5275 
     54 N          32.4609   30.5025    0.5167 N.am      9 UNK        -0.4246 
     55 CA         33.8711   30.9074    0.5602 C.3       9 UNK         0.0261 
     56 CB         34.7905   29.6621    0.5267 C.3       9 UNK        -0.1959 
     57 C          34.1359   31.8694    1.7369 C.2       9 UNK         0.5033 
     58 O          33.5393   32.9473    1.7697 O.2       9 UNK        -0.5390 
     59 N          34.9989   31.4643    2.6754 N.am      10 UNK        -0.4215 
     60 CA         35.2691   32.1651    3.9329 C.3       10 UNK         0.0240 
     61 CB         36.7936   32.2199    4.1423 C.3       10 UNK        -0.1982 
     62 C          34.5749   31.4946    5.1359 C.2       10 UNK         0.4970 
     63 O          34.7794   31.9473    6.2638 O.2       10 UNK        -0.4916 
     64 N          33.8054   30.4240    4.9010 N.am      11 UNK        -0.4279 
     65 CA         33.1164   29.6371    5.9326 C.3       11 UNK         0.1003 
     66 C          31.7579   30.2699    6.3450 C.2       11 UNK         0.5709 
     67 N          31.1022   29.7252    7.3604 N.am      11 UNK        -0.7358 
     68 O          31.2895   31.2509    5.7705 O.2       11 UNK        -0.4999 
     69 C69        32.9711   28.1494    5.5057 C.3       12 UNK        -0.0954 
     70 S70        34.5753   27.4030    5.0590 S.3       12 UNK        -0.2268 
     71 C71        34.2023   25.6239    5.1830 C.3       12 UNK         0.0203 
     72 H72        27.8674   20.2337    0.1001 H         1 UNK         0.0888 
     73 H73        29.4995   19.6745   -0.2785 H         1 UNK         0.0888 
     74 H74        29.2554   20.9051    0.9591 H         1 UNK         0.0888 
     75 H75        29.4754   23.0400    0.2883 H         1 UNK         0.3017 
     76 H76        29.8686   23.6689   -2.5478 H         1 UNK         0.0873 
     77 H77        30.1504   25.3442    0.0006 H         1 UNK         0.0745 
     78 H78        30.3462   26.0113   -1.6064 H         1 UNK         0.0745 
     79 H79        34.0046   25.5473    0.0576 H         1 UNK         0.0705 
     80 H80        32.5790   26.5295    0.2359 H         1 UNK         0.0705 
     81 H81        34.1280   26.3600    2.5059 H         1 UNK         0.1334 
     82 H82        32.4358   23.5915    5.3090 H         1 UNK         0.1417 
     83 H83        31.3684   23.3549    1.1823 H         1 UNK         0.1562 
     84 H84        31.0954   21.7655    4.5540 H         1 UNK         0.0748 
     85 H85        31.0997   21.3802    2.8528 H         1 UNK         0.0748 
     86 H86        29.8466   23.8237    5.4258 H         1 UNK         0.0940 
     87 H87        28.1191   23.6157    5.3980 H         1 UNK         0.0940 
     88 H88        29.6655   25.5148    3.5531 H         1 UNK         0.0703 
     89 H89        27.1130   24.5140    3.2158 H         1 UNK         0.3081 
     90 H90        25.9339   25.1789    1.4792 H         1 UNK         0.0719 
     91 H91        24.5192   25.9515    3.3178 H         1 UNK         0.0809 
     92 H92        24.7036   27.6303    2.8464 H         1 UNK         0.0809 
     93 H93        23.8172   26.5125    1.8092 H         1 UNK         0.0809 
     94 H94        26.4292   26.3060   -0.3081 H         1 UNK         0.2990 
     95 H95        25.3578   29.0625   -1.7087 H         1 UNK         0.0690 
     96 H96        27.1145   30.5862   -0.7145 H         1 UNK         0.0788 
     97 H97        27.4010   30.1899   -2.3987 H         1 UNK         0.0788 
     98 H98        28.3422   29.4028   -1.1405 H         1 UNK         0.0788 
     99 H99        27.7044   27.4111   -2.3120 H         1 UNK         0.2993 
    100 H100       25.8310   24.6701   -3.4867 H         1 UNK         0.0949 
    101 H101       26.9785   25.0370   -5.6492 H         1 UNK         0.0767 
    102 H102       25.6810   26.2033   -5.4635 H         1 UNK         0.0767 
    103 H103       27.3466   26.7059   -5.2093 H         1 UNK         0.0767 
    104 H104       28.5705   25.0450   -3.7484 H         1 UNK         0.3013 
    105 H105       26.8558   26.6370    5.2056 H         1 UNK         0.3121 
    106 H106       28.2289   27.7845    7.5076 H         1 UNK         0.0774 
    107 H107       25.9807   28.7511    7.9732 H         1 UNK         0.0815 
    108 H108       25.3915   28.1936    6.4142 H         1 UNK         0.0815 
    109 H109       25.8598   27.0297    7.6559 H         1 UNK         0.0815 
    110 H110       27.8438   28.7826    4.1812 H         1 UNK         0.2987 
    111 H111       28.6329   31.5744    4.8951 H         1 UNK         0.0949 
    112 H112       26.3240   30.7864    3.0393 H         1 UNK         0.0806 
    113 H113       26.1644   31.5686    4.6122 H         1 UNK         0.0806 
    114 H114       26.9241   32.4224    3.2793 H         1 UNK         0.0806 
    115 H115       28.9425   28.8859    2.6623 H         1 UNK         0.3010 
    116 H116       29.9434   30.2663    0.4319 H         1 UNK         0.0829 
    117 H117       30.7708   28.0170   -0.2435 H         1 UNK         0.0813 
    118 H118       30.5530   27.4174    1.4003 H         1 UNK         0.0813 
    119 H119       29.1571   27.8765    0.4330 H         1 UNK         0.0813 
    120 H120       31.9629   30.7646   -0.3224 H         1 UNK         0.3038 
    121 H121       34.0600   31.4807   -0.3486 H         1 UNK         0.0769 
    122 H122       34.6505   29.0146    1.3933 H         1 UNK         0.0811 
    123 H123       35.8428   29.9470    0.4854 H         1 UNK         0.0811 
    124 H124       34.5933   29.0600   -0.3604 H         1 UNK         0.0811 
    125 H125       35.4283   30.5562    2.5666 H         1 UNK         0.3204 
    126 H126       34.8974   33.1906    3.8829 H         1 UNK         0.0748 
    127 H127       37.0475   32.7810    5.0427 H         1 UNK         0.0771 
    128 H128       37.2231   31.2227    4.2471 H         1 UNK         0.0771 
    129 H129       37.2903   32.7133    3.3066 H         1 UNK         0.0771 
    130 H130       33.5666   30.1673    3.9484 H         1 UNK         0.2980 
    131 H131       33.7381   29.6538    6.8298 H         1 UNK         0.0545 
    132 H132       30.1973   30.1072    7.5998 H         1 UNK         0.3459 
    133 H133       31.4559   28.9145    7.8423 H         1 UNK         0.3459 
    134 H134       32.2876   28.0441    4.6621 H         1 UNK         0.0616 
    135 H135       32.5391   27.5643    6.3187 H         1 UNK         0.0616 
    136 H136       33.7169   25.4374    6.1424 H         1 UNK         0.0634 
    137 H137       35.1482   25.0817    5.2083 H         1 UNK         0.0634 
@<TRIPOS>BOND
     1    1    2 1    
     2    1   72 1    
     3    1   73 1    
     4    1   74 1    
     5    2    3 2    
     6    2    4 am   BACKBONE|DICT|INTERRES
     7    4    5 1    
     8    4   75 1    
     9    5    6 1    
    10    5   35 1    
    11    5   76 1    
    12    6    7 1    
    13    6   77 1    
    14    6   78 1    
    15    7    8 1    
    16    8    9 1    
    17    8   79 1    
    18    8   80 1    
    19    9   10 ar   
    20    9   14 ar   
    21   10   11 ar   
    22   10   81 1    
    23   11   12 ar   
    24   11   71 1    
    25   12   13 ar   
    26   12   82 1    
    27   13   14 ar   
    28   13   15 1    
    29   14   83 1    
    30   15   16 1    
    31   15   84 1    
    32   15   85 1    
    33   16   17 1    
    34   17   18 1    
    35   17   86 1    
    36   17   87 1    
    37   18   19 1    
    38   18   37 1    
    39   18   88 1    
    40   19   20 am   BACKBONE|DICT|INTERRES
    41   19   89 1    
    42   20   21 2    
    43   20   22 1    
    44   22   23 1    
    45   22   24 1    
    46   22   90 1    
    47   23   91 1    
    48   23   92 1    
    49   23   93 1    
    50   24   25 am   BACKBONE|DICT|INTERRES
    51   24   94 1    
    52   25   26 2    
    53   25   27 1    
    54   27   28 1    
    55   27   29 1    
    56   27   95 1    
    57   28   96 1    
    58   28   97 1    
    59   28   98 1    
    60   29   30 am   BACKBONE|DICT|INTERRES
    61   29   99 1    
    62   30   31 2    
    63   30   32 1    
    64   32   33 1    
    65   32   34 1    
    66   32  100 1    
    67   33  101 1    
    68   33  102 1    
    69   33  103 1    
    70   34   35 am   BACKBONE|DICT|INTERRES
    71   34  104 1    
    72   35   36 2    
    73   37   38 2    
    74   37   39 am   BACKBONE|DICT|INTERRES
    75   39   40 1    
    76   39  105 1    
    77   40   41 1    
    78   40   42 1    
    79   40  106 1    
    80   41  107 1    
    81   41  108 1    
    82   41  109 1    
    83   42   43 2    
    84   42   44 am   BACKBONE|DICT|INTERRES
    85   44   45 1    
    86   44  110 1    
    87   45   46 1    
    88   45   47 1    
    89   45  111 1    
    90   46  112 1    
    91   46  113 1    
    92   46  114 1    
    93   47   48 2    
    94   47   49 am   BACKBONE|DICT|INTERRES
    95   49   50 1    
    96   49  115 1    
    97   50   51 1    
    98   50   52 1    
    99   50  116 1    
   100   51  117 1    
   101   51  118 1    
   102   51  119 1    
   103   52   53 2    
   104   52   54 am   BACKBONE|DICT|INTERRES
   105   54   55 1    
   106   54  120 1    
   107   55   56 1    
   108   55   57 1    
   109   55  121 1    
   110   56  122 1    
   111   56  123 1    
   112   56  124 1    
   113   57   58 2    
   114   57   59 am   BACKBONE|DICT|INTERRES
   115   59   60 1    
   116   59  125 1    
   117   60   61 1    
   118   60   62 1    
   119   60  126 1    
   120   61  127 1    
   121   61  128 1    
   122   61  129 1    
   123   62   63 2    
   124   62   64 am   BACKBONE|DICT|INTERRES
   125   64   65 1    
   126   64  130 1    
   127   65   66 1    
   128   65   69 1    
   129   65  131 1    
   130   66   67 am   BACKBONE|DICT|INTERRES
   131   66   68 2    
   132   67  132 1    
   133   67  133 1    
   134   69   70 1    
   135   69  134 1    
   136   69  135 1    
   137   70   71 1    
   138   71  136 1    
   139   71  137 1    
@<TRIPOS>SUBSTRUCTURE
     1 UNK         1 GROUP             0       ****    0 ROOT    
