@<TRIPOS>MOLECULE
3R136
137   139    1
SMALL
USER_CHARGES


@<TRIPOS>ATOM
      1 CA         27.6247   17.5991   -0.5685 C.3       0 UNK        -0.1979 
      2 C          28.8183   18.4139   -0.0928 C.2       0 UNK         0.4864 
      3 O          29.9592   17.9781   -0.2518 O.2       0 UNK        -0.5359 
      4 N          28.5650   19.5949    0.4874 N.am      1 UNK        -0.4318 
      5 CA         29.5859   20.5175    1.0022 C.3       1 UNK         0.0824 
      6 C6         28.9991   21.4820    2.0638 C.3       12 UNK        -0.0944 
      7 S7         27.6217   22.5120    1.4453 S.3       12 UNK        -0.2672 
      8 C8         28.3185   24.1857    1.5863 C.3       12 UNK         0.0333 
      9 C9         28.1519   24.7512    2.9890 C.ar      12 UNK        -0.0807 
     10 C10        29.1657   24.6107    3.9410 C.ar      12 UNK        -0.0894 
     11 C11        29.0141   25.1358    5.2321 C.ar      12 UNK        -0.0804 
     12 C12        27.8323   25.8107    5.5560 C.ar      12 UNK        -0.0824 
     13 C13        26.8169   25.9721    4.6081 C.ar      12 UNK        -0.0762 
     14 C14        26.9785   25.4274    3.3309 C.ar      12 UNK        -0.0782 
     15 C15        25.5471   26.7372    4.9594 C.3       12 UNK         0.0230 
     16 S16        25.2949   28.1846    3.8783 S.3       12 UNK        -0.2608 
     17 C17        26.5868   29.3452    4.4513 C.3       12 UNK        -0.0989 
     18 CA         28.0067   29.0576    3.8871 C.3       5 UNK         0.0716 
     19 N          27.9724   28.7651    2.4501 N.am      5 UNK        -0.4135 
     20 C          28.9928   28.3421    1.6964 C.2       4 UNK         0.5031 
     21 O          30.1679   28.2814    2.0719 O.2       4 UNK        -0.5229 
     22 CA         28.6246   27.8838    0.2804 C.3       4 UNK         0.0329 
     23 CB         28.2373   29.0617   -0.6320 C.3       4 UNK        -0.2001 
     24 N          29.7727   27.1712   -0.2676 N.am      4 UNK        -0.4303 
     25 C          29.7314   26.1277   -1.1000 C.2       3 UNK         0.5044 
     26 O          28.6866   25.7067   -1.6007 O.2       3 UNK        -0.5152 
     27 CA         31.0776   25.4359   -1.4074 C.3       3 UNK         0.0319 
     28 CB         32.1572   25.6901   -0.3343 C.3       3 UNK        -0.2001 
     29 N          30.9121   23.9897   -1.5578 N.am      3 UNK        -0.4354 
     30 C          30.5364   23.3517   -2.6712 C.2       2 UNK         0.4964 
     31 O          30.3338   23.9176   -3.7467 O.2       2 UNK        -0.5047 
     32 CA         30.3653   21.8209   -2.5971 C.3       2 UNK         0.0288 
     33 CB         31.6770   21.1058   -2.9772 C.3       2 UNK        -0.2113 
     34 N          29.8186   21.2861   -1.3376 N.am      2 UNK        -0.4145 
     35 C          30.3591   21.2693   -0.1074 C.2       1 UNK         0.5006 
     36 O          31.4225   21.8216    0.1788 O.2       1 UNK        -0.5103 
     37 C          29.0007   30.1674    4.2875 C.2       5 UNK         0.5055 
     38 O          29.5513   30.8535    3.4237 O.2       5 UNK        -0.5220 
     39 N          29.1940   30.3355    5.6044 N.am      6 UNK        -0.4450 
     40 CA         30.1612   31.2375    6.2432 C.3       6 UNK         0.0367 
     41 CB         29.9216   31.2483    7.7613 C.3       6 UNK        -0.1929 
     42 C          30.1907   32.6782    5.6974 C.2       6 UNK         0.5070 
     43 O          31.2734   33.2285    5.5008 O.2       6 UNK        -0.5237 
     44 N          29.0074   33.2460    5.4354 N.am      7 UNK        -0.4739 
     45 CA         28.8413   34.5939    4.8840 C.3       7 UNK         0.0276 
     46 CB         27.4939   35.1561    5.3689 C.3       7 UNK        -0.1927 
     47 C          28.9208   34.6531    3.3454 C.2       7 UNK         0.5013 
     48 O          28.9973   35.7560    2.8019 O.2       7 UNK        -0.5193 
     49 N          28.8650   33.4974    2.6698 N.am      8 UNK        -0.4253 
     50 CA         28.7964   33.3811    1.2129 C.3       8 UNK         0.0242 
     51 CB         27.7003   32.3708    0.8345 C.3       8 UNK        -0.2000 
     52 C          30.1472   32.9783    0.6060 C.2       8 UNK         0.4948 
     53 O          30.6132   33.6568   -0.3103 O.2       8 UNK        -0.5275 
     54 N          30.7511   31.8933    1.1109 N.am      9 UNK        -0.4246 
     55 CA         32.0206   31.3500    0.6135 C.3       9 UNK         0.0261 
     56 CB         31.7823   30.4262   -0.5970 C.3       9 UNK        -0.1959 
     57 C          32.8421   30.6660    1.7172 C.2       9 UNK         0.5033 
     58 O          33.6388   29.7756    1.4140 O.2       9 UNK        -0.5390 
     59 N          32.6561   31.0943    2.9746 N.am      10 UNK        -0.4215 
     60 CA         33.4470   30.7191    4.1548 C.3       10 UNK         0.0240 
     61 CB         34.8810   31.2800    4.0268 C.3       10 UNK        -0.1982 
     62 C          33.4463   29.2139    4.5043 C.2       10 UNK         0.4970 
     63 O          34.3577   28.7773    5.2092 O.2       10 UNK        -0.4916 
     64 N          32.4596   28.4436    4.0149 N.am      11 UNK        -0.4279 
     65 CA         32.4367   26.9690    4.0729 C.3       11 UNK         0.1003 
     66 C          33.5330   26.3026    3.1754 C.2       11 UNK         0.5709 
     67 N          34.1089   27.0010    2.2018 N.am      11 UNK        -0.7358 
     68 O          33.8610   25.1301    3.3342 O.2       11 UNK        -0.4999 
     69 C69        32.3782   26.4413    5.5399 C.3       12 UNK        -0.0954 
     70 S70        31.7787   24.7254    5.7215 S.3       12 UNK        -0.2268 
     71 C71        30.0684   24.9376    6.3217 C.3       12 UNK         0.0203 
     72 H72        26.6798   18.1029   -0.3654 H         1 UNK         0.0888 
     73 H73        27.6927   17.4253   -1.6420 H         1 UNK         0.0888 
     74 H74        27.6073   16.6319   -0.0669 H         1 UNK         0.0888 
     75 H75        27.6092   19.9051    0.5993 H         1 UNK         0.3017 
     76 H76        30.3352   19.9095    1.5144 H         1 UNK         0.0873 
     77 H77        28.6227   20.9043    2.9094 H         1 UNK         0.0745 
     78 H78        29.7886   22.1107    2.4769 H         1 UNK         0.0745 
     79 H79        27.8009   24.8270    0.8729 H         1 UNK         0.0705 
     80 H80        29.3683   24.1849    1.2892 H         1 UNK         0.0705 
     81 H81        30.0669   24.0781    3.6747 H         1 UNK         0.1334 
     82 H82        27.7026   26.2124    6.5519 H         1 UNK         0.1417 
     83 H83        26.1912   25.5416    2.5980 H         1 UNK         0.1562 
     84 H84        25.5534   27.0606    6.0014 H         1 UNK         0.0748 
     85 H85        24.6935   26.0666    4.8519 H         1 UNK         0.0748 
     86 H86        26.5886   29.3399    5.5426 H         1 UNK         0.0940 
     87 H87        26.2640   30.3466    4.1582 H         1 UNK         0.0940 
     88 H88        28.3923   28.1561    4.3600 H         1 UNK         0.0703 
     89 H89        27.0494   28.7825    2.0428 H         1 UNK         0.3081 
     90 H90        27.7790   27.1978    0.3600 H         1 UNK         0.0719 
     91 H91        28.9901   29.8487   -0.6301 H         1 UNK         0.0809 
     92 H92        28.0973   28.7359   -1.6628 H         1 UNK         0.0809 
     93 H93        27.2976   29.5111   -0.3104 H         1 UNK         0.0809 
     94 H94        30.6471   27.4118    0.1833 H         1 UNK         0.2990 
     95 H95        31.4399   25.8493   -2.3507 H         1 UNK         0.0690 
     96 H96        33.0713   25.1398   -0.5584 H         1 UNK         0.0788 
     97 H97        31.8242   25.3810    0.6578 H         1 UNK         0.0788 
     98 H98        32.4348   26.7438   -0.2822 H         1 UNK         0.0788 
     99 H99        31.0933   23.4146   -0.7399 H         1 UNK         0.2993 
    100 H100       29.6270   21.5663   -3.3595 H         1 UNK         0.0949 
    101 H101       32.4777   21.3189   -2.2682 H         1 UNK         0.0767 
    102 H102       31.5420   20.0247   -3.0156 H         1 UNK         0.0767 
    103 H103       32.0234   21.4246   -3.9613 H         1 UNK         0.0767 
    104 H104       28.9155   20.8425   -1.4282 H         1 UNK         0.3013 
    105 H105       28.6871   29.7332    6.2365 H         1 UNK         0.3121 
    106 H106       31.1430   30.7993    6.0750 H         1 UNK         0.0774 
    107 H107       30.6398   31.8967    8.2657 H         1 UNK         0.0815 
    108 H108       28.9241   31.6117    8.0115 H         1 UNK         0.0815 
    109 H109       30.0346   30.2524    8.1902 H         1 UNK         0.0815 
    110 H110       28.1664   32.7182    5.6197 H         1 UNK         0.2987 
    111 H111       29.6344   35.2383    5.2706 H         1 UNK         0.0949 
    112 H112       27.3455   36.1777    5.0158 H         1 UNK         0.0806 
    113 H113       26.6539   34.5618    5.0072 H         1 UNK         0.0806 
    114 H114       27.4437   35.1830    6.4576 H         1 UNK         0.0806 
    115 H115       28.9046   32.6259    3.1887 H         1 UNK         0.3010 
    116 H116       28.5164   34.3420    0.7752 H         1 UNK         0.0829 
    117 H117       26.7195   32.7133    1.1643 H         1 UNK         0.0813 
    118 H118       27.6489   32.2346   -0.2466 H         1 UNK         0.0813 
    119 H119       27.8771   31.3936    1.2821 H         1 UNK         0.0813 
    120 H120       30.3033   31.3876    1.8758 H         1 UNK         0.3038 
    121 H121       32.6416   32.1826    0.2766 H         1 UNK         0.0769 
    122 H122       32.7267   30.1388   -1.0606 H         1 UNK         0.0811 
    123 H123       31.1829   30.9128   -1.3662 H         1 UNK         0.0811 
    124 H124       31.2791   29.5087   -0.2991 H         1 UNK         0.0811 
    125 H125       31.9509   31.8013    3.1335 H         1 UNK         0.3204 
    126 H126       32.9956   31.2289    5.0024 H         1 UNK         0.0748 
    127 H127       35.4375   31.1594    4.9571 H         1 UNK         0.0771 
    128 H128       35.4451   30.7730    3.2430 H         1 UNK         0.0771 
    129 H129       34.8712   32.3456    3.7975 H         1 UNK         0.0771 
    130 H130       31.7600   28.8535    3.4061 H         1 UNK         0.2980 
    131 H131       31.4947   26.6850    3.6051 H         1 UNK         0.0545 
    132 H132       34.8092   26.5553    1.6326 H         1 UNK         0.3459 
    133 H133       33.8660   27.9730    2.0294 H         1 UNK         0.3459 
    134 H134       33.3650   26.4930    6.0015 H         1 UNK         0.0616 
    135 H135       31.7387   27.0911    6.1387 H         1 UNK         0.0616 
    136 H136       29.7994   24.0409    6.8811 H         1 UNK         0.0634 
    137 H137       30.0400   25.7605    7.0374 H         1 UNK         0.0634 
@<TRIPOS>BOND
     1    1    2 1    
     2    1   72 1    
     3    1   73 1    
     4    1   74 1    
     5    2    3 2    
     6    2    4 am   BACKBONE|DICT|INTERRES
     7    4    5 1    
     8    4   75 1    
     9    5    6 1    
    10    5   35 1    
    11    5   76 1    
    12    6    7 1    
    13    6   77 1    
    14    6   78 1    
    15    7    8 1    
    16    8    9 1    
    17    8   79 1    
    18    8   80 1    
    19    9   10 ar   
    20    9   14 ar   
    21   10   11 ar   
    22   10   81 1    
    23   11   12 ar   
    24   11   71 1    
    25   12   13 ar   
    26   12   82 1    
    27   13   14 ar   
    28   13   15 1    
    29   14   83 1    
    30   15   16 1    
    31   15   84 1    
    32   15   85 1    
    33   16   17 1    
    34   17   18 1    
    35   17   86 1    
    36   17   87 1    
    37   18   19 1    
    38   18   37 1    
    39   18   88 1    
    40   19   20 am   BACKBONE|DICT|INTERRES
    41   19   89 1    
    42   20   21 2    
    43   20   22 1    
    44   22   23 1    
    45   22   24 1    
    46   22   90 1    
    47   23   91 1    
    48   23   92 1    
    49   23   93 1    
    50   24   25 am   BACKBONE|DICT|INTERRES
    51   24   94 1    
    52   25   26 2    
    53   25   27 1    
    54   27   28 1    
    55   27   29 1    
    56   27   95 1    
    57   28   96 1    
    58   28   97 1    
    59   28   98 1    
    60   29   30 am   BACKBONE|DICT|INTERRES
    61   29   99 1    
    62   30   31 2    
    63   30   32 1    
    64   32   33 1    
    65   32   34 1    
    66   32  100 1    
    67   33  101 1    
    68   33  102 1    
    69   33  103 1    
    70   34   35 am   BACKBONE|DICT|INTERRES
    71   34  104 1    
    72   35   36 2    
    73   37   38 2    
    74   37   39 am   BACKBONE|DICT|INTERRES
    75   39   40 1    
    76   39  105 1    
    77   40   41 1    
    78   40   42 1    
    79   40  106 1    
    80   41  107 1    
    81   41  108 1    
    82   41  109 1    
    83   42   43 2    
    84   42   44 am   BACKBONE|DICT|INTERRES
    85   44   45 1    
    86   44  110 1    
    87   45   46 1    
    88   45   47 1    
    89   45  111 1    
    90   46  112 1    
    91   46  113 1    
    92   46  114 1    
    93   47   48 2    
    94   47   49 am   BACKBONE|DICT|INTERRES
    95   49   50 1    
    96   49  115 1    
    97   50   51 1    
    98   50   52 1    
    99   50  116 1    
   100   51  117 1    
   101   51  118 1    
   102   51  119 1    
   103   52   53 2    
   104   52   54 am   BACKBONE|DICT|INTERRES
   105   54   55 1    
   106   54  120 1    
   107   55   56 1    
   108   55   57 1    
   109   55  121 1    
   110   56  122 1    
   111   56  123 1    
   112   56  124 1    
   113   57   58 2    
   114   57   59 am   BACKBONE|DICT|INTERRES
   115   59   60 1    
   116   59  125 1    
   117   60   61 1    
   118   60   62 1    
   119   60  126 1    
   120   61  127 1    
   121   61  128 1    
   122   61  129 1    
   123   62   63 2    
   124   62   64 am   BACKBONE|DICT|INTERRES
   125   64   65 1    
   126   64  130 1    
   127   65   66 1    
   128   65   69 1    
   129   65  131 1    
   130   66   67 am   BACKBONE|DICT|INTERRES
   131   66   68 2    
   132   67  132 1    
   133   67  133 1    
   134   69   70 1    
   135   69  134 1    
   136   69  135 1    
   137   70   71 1    
   138   71  136 1    
   139   71  137 1    
@<TRIPOS>SUBSTRUCTURE
     1 UNK         1 GROUP             0       ****    0 ROOT    
