@<TRIPOS>MOLECULE
3R136
137   139    1
SMALL
USER_CHARGES


@<TRIPOS>ATOM
      1 CA         28.2119   26.1481    6.3632 C.3       0 UNK        -0.1979 
      2 C          28.1651   24.9452    5.4315 C.2       0 UNK         0.4864 
      3 O          27.1730   24.2156    5.4209 O.2       0 UNK        -0.5359 
      4 N          29.2419   24.7210    4.6715 N.am      1 UNK        -0.4318 
      5 CA         29.4019   23.6009    3.7444 C.3       1 UNK         0.0824 
      6 C6         30.9067   23.3626    3.4716 C.3       12 UNK        -0.0944 
      7 S7         31.3370   21.6302    3.0914 S.3       12 UNK        -0.2672 
      8 C8         31.5804   21.6129    1.2816 C.3       12 UNK         0.0333 
      9 C9         32.3437   22.8164    0.7388 C.ar      12 UNK        -0.0807 
     10 C10        33.5917   23.1736    1.2601 C.ar      12 UNK        -0.0894 
     11 C11        34.2638   24.3006    0.7777 C.ar      12 UNK        -0.0804 
     12 C12        33.6934   25.0565   -0.2521 C.ar      12 UNK        -0.0824 
     13 C13        32.4472   24.7095   -0.7826 C.ar      12 UNK        -0.0762 
     14 C14        31.7831   23.5860   -0.2844 C.ar      12 UNK        -0.0782 
     15 C15        31.8122   25.5363   -1.8964 C.3       12 UNK         0.0230 
     16 S16        31.5630   27.2836   -1.4383 S.3       12 UNK        -0.2608 
     17 C17        30.6097   27.1436    0.1095 C.3       12 UNK        -0.0989 
     18 CA         29.5626   28.2750    0.2487 C.3       5 UNK         0.0716 
     19 N          28.4596   28.1294   -0.7052 N.am      5 UNK        -0.4135 
     20 C          27.6053   29.1081   -1.0304 C.2       4 UNK         0.5031 
     21 O          27.6667   30.2503   -0.5735 O.2       4 UNK        -0.5229 
     22 CA         26.4678   28.7456   -2.0024 C.3       4 UNK         0.0329 
     23 CB         26.9140   28.9740   -3.4556 C.3       4 UNK        -0.2001 
     24 N          25.9419   27.3799   -1.8635 N.am      4 UNK        -0.4303 
     25 C          25.4304   26.8534   -0.7401 C.2       3 UNK         0.5044 
     26 O          25.4514   27.4262    0.3469 O.2       3 UNK        -0.5152 
     27 CA         24.7891   25.4606   -0.8402 C.3       3 UNK         0.0319 
     28 CB         24.1602   25.1770   -2.2195 C.3       3 UNK        -0.2001 
     29 N          25.7823   24.4315   -0.5447 N.am      3 UNK        -0.4354 
     30 C          26.0154   23.8850    0.6567 C.2       2 UNK         0.4964 
     31 O          25.3766   24.1595    1.6738 O.2       2 UNK        -0.5047 
     32 CA         27.1094   22.7952    0.7184 C.3       2 UNK         0.0288 
     33 CB         28.0348   22.7770   -0.5205 C.3       2 UNK        -0.2113 
     34 N          27.9030   22.8250    1.9567 N.am      2 UNK        -0.4145 
     35 C          28.6160   23.8548    2.4396 C.2       1 UNK         0.5006 
     36 O          28.7020   24.9524    1.8858 O.2       1 UNK        -0.5103 
     37 C          29.0893   28.4225    1.7118 C.2       5 UNK         0.5055 
     38 O          29.8748   28.8940    2.5355 O.2       5 UNK        -0.5220 
     39 N          27.8332   28.0696    2.0313 N.am      6 UNK        -0.4450 
     40 CA         27.2806   28.1810    3.3846 C.3       6 UNK         0.0367 
     41 CB         25.9724   27.3835    3.4907 C.3       6 UNK        -0.1929 
     42 C          27.0747   29.6308    3.8558 C.2       6 UNK         0.5070 
     43 O          26.9415   29.8534    5.0593 O.2       6 UNK        -0.5237 
     44 N          27.0983   30.6004    2.9298 N.am      7 UNK        -0.4739 
     45 CA         27.0270   32.0432    3.1855 C.3       7 UNK         0.0276 
     46 CB         26.5846   32.7476    1.8893 C.3       7 UNK        -0.1927 
     47 C          28.3405   32.6259    3.7588 C.2       7 UNK         0.5013 
     48 O          28.8049   33.6676    3.2926 O.2       7 UNK        -0.5193 
     49 N          28.9105   31.9406    4.7609 N.am      8 UNK        -0.4253 
     50 CA         30.1156   32.2773    5.5293 C.3       8 UNK         0.0242 
     51 CB         29.8502   33.5054    6.4261 C.3       8 UNK        -0.2000 
     52 C          31.3992   32.4316    4.6867 C.2       8 UNK         0.4948 
     53 O          32.3010   33.1740    5.0836 O.2       8 UNK        -0.5275 
     54 N          31.4974   31.7153    3.5577 N.am      9 UNK        -0.4246 
     55 CA         32.6472   31.7462    2.6468 C.3       9 UNK         0.0261 
     56 CB         32.1769   31.3237    1.2421 C.3       9 UNK        -0.1959 
     57 C          33.8004   30.8681    3.1712 C.2       9 UNK         0.5033 
     58 O          34.1775   29.8984    2.5103 O.2       9 UNK        -0.5390 
     59 N          34.2940   31.1846    4.3782 N.am      10 UNK        -0.4215 
     60 CA         35.2105   30.3900    5.2072 C.3       10 UNK         0.0240 
     61 CB         36.6058   30.2587    4.5543 C.3       10 UNK        -0.1982 
     62 C          34.5608   29.0433    5.5762 C.2       10 UNK         0.4970 
     63 O          33.7872   28.9955    6.5335 O.2       10 UNK        -0.4916 
     64 N          34.8410   28.0001    4.7869 N.am      11 UNK        -0.4279 
     65 CA         34.0800   26.7409    4.7476 C.3       11 UNK         0.1003 
     66 C          32.6061   26.9227    4.2791 C.2       11 UNK         0.5709 
     67 N          32.3203   27.8903    3.4209 N.am      11 UNK        -0.7358 
     68 O          31.7139   26.2127    4.7363 O.2       11 UNK        -0.4999 
     69 C69        34.8226   25.6453    3.9298 C.3       12 UNK        -0.0954 
     70 S70        35.4926   26.2381    2.3328 S.3       12 UNK        -0.2268 
     71 C71        35.6089   24.7041    1.3612 C.3       12 UNK         0.0203 
     72 H72        29.0754   26.7829    6.1620 H         1 UNK         0.0888 
     73 H73        27.3124   26.7526    6.2527 H         1 UNK         0.0888 
     74 H74        28.2703   25.8152    7.3990 H         1 UNK         0.0888 
     75 H75        30.0319   25.3623    4.7072 H         1 UNK         0.3017 
     76 H76        28.9935   22.7146    4.2352 H         1 UNK         0.0873 
     77 H77        31.2885   24.0628    2.7278 H         1 UNK         0.0745 
     78 H78        31.4785   23.5857    4.3738 H         1 UNK         0.0745 
     79 H79        30.5996   21.5357    0.8150 H         1 UNK         0.0705 
     80 H80        32.1173   20.7034    1.0096 H         1 UNK         0.0705 
     81 H81        34.0266   22.5846    2.0560 H         1 UNK         0.1334 
     82 H82        34.2113   25.9288   -0.6274 H         1 UNK         0.1417 
     83 H83        30.8239   23.3107   -0.6952 H         1 UNK         0.1562 
     84 H84        30.8505   25.1156   -2.1943 H         1 UNK         0.0748 
     85 H85        32.4520   25.4919   -2.7787 H         1 UNK         0.0748 
     86 H86        31.3317   27.1648    0.9279 H         1 UNK         0.0940 
     87 H87        30.1275   26.1673    0.1595 H         1 UNK         0.0940 
     88 H88        30.0643   29.2158    0.0126 H         1 UNK         0.0703 
     89 H89        28.3388   27.2198   -1.1241 H         1 UNK         0.3081 
     90 H90        25.6413   29.4275   -1.7916 H         1 UNK         0.0719 
     91 H91        27.2883   29.9896   -3.5940 H         1 UNK         0.0809 
     92 H92        27.7131   28.2905   -3.7458 H         1 UNK         0.0809 
     93 H93        26.0862   28.8400   -4.1522 H         1 UNK         0.0809 
     94 H94        25.8826   26.8349   -2.7113 H         1 UNK         0.2990 
     95 H95        23.9871   25.4231   -0.0996 H         1 UNK         0.0690 
     96 H96        23.4626   25.9665   -2.5034 H         1 UNK         0.0788 
     97 H97        23.5946   24.2451   -2.2021 H         1 UNK         0.0788 
     98 H98        24.9055   25.0902   -3.0108 H         1 UNK         0.0788 
     99 H99        26.3691   24.1399   -1.3128 H         1 UNK         0.2993 
    100 H100       26.5704   21.8467    0.7346 H         1 UNK         0.0949 
    101 H101       28.7718   21.9796   -0.4466 H         1 UNK         0.0767 
    102 H102       27.4770   22.5858   -1.4380 H         1 UNK         0.0767 
    103 H103       28.5648   23.7224   -0.6408 H         1 UNK         0.0767 
    104 H104       27.8718   21.9769    2.5049 H         1 UNK         0.3013 
    105 H105       27.2056   27.7170    1.3154 H         1 UNK         0.3121 
    106 H106       28.0067   27.7291    4.0607 H         1 UNK         0.0774 
    107 H107       25.1788   27.8261    2.8887 H         1 UNK         0.0815 
    108 H108       26.1097   26.3517    3.1660 H         1 UNK         0.0815 
    109 H109       25.6150   27.3543    4.5204 H         1 UNK         0.0815 
    110 H110       27.2460   30.3257    1.9674 H         1 UNK         0.2987 
    111 H111       26.2549   32.2186    3.9379 H         1 UNK         0.0949 
    112 H112       26.4471   33.8179    2.0493 H         1 UNK         0.0806 
    113 H113       27.3227   32.6267    1.0950 H         1 UNK         0.0806 
    114 H114       25.6355   32.3529    1.5263 H         1 UNK         0.0806 
    115 H115       28.4186   31.1019    5.0585 H         1 UNK         0.3010 
    116 H116       30.2978   31.4254    6.1862 H         1 UNK         0.0829 
    117 H117       29.7130   34.4123    5.8360 H         1 UNK         0.0813 
    118 H118       28.9593   33.3653    7.0383 H         1 UNK         0.0813 
    119 H119       30.6828   33.6837    7.1078 H         1 UNK         0.0813 
    120 H120       30.7507   31.0743    3.3210 H         1 UNK         0.3038 
    121 H121       33.0199   32.7704    2.5773 H         1 UNK         0.0769 
    122 H122       31.8368   30.2881    1.2281 H         1 UNK         0.0811 
    123 H123       32.9887   31.4068    0.5184 H         1 UNK         0.0811 
    124 H124       31.3593   31.9519    0.8882 H         1 UNK         0.0811 
    125 H125       33.8563   31.9777    4.8410 H         1 UNK         0.3204 
    126 H126       35.3377   30.9389    6.1416 H         1 UNK         0.0748 
    127 H127       37.2755   29.6704    5.1828 H         1 UNK         0.0771 
    128 H128       36.5740   29.7819    3.5745 H         1 UNK         0.0771 
    129 H129       37.0664   31.2381    4.4244 H         1 UNK         0.0771 
    130 H130       35.4396   28.1583    3.9887 H         1 UNK         0.2980 
    131 H131       34.0188   26.3803    5.7761 H         1 UNK         0.0545 
    132 H132       31.3576   28.0771    3.1563 H         1 UNK         0.3459 
    133 H133       33.0617   28.4755    3.0479 H         1 UNK         0.3459 
    134 H134       34.1768   24.7814    3.7608 H         1 UNK         0.0616 
    135 H135       35.6656   25.2728    4.5132 H         1 UNK         0.0616 
    136 H136       36.3167   24.8600    0.5460 H         1 UNK         0.0634 
    137 H137       36.0262   23.9099    1.9823 H         1 UNK         0.0634 
@<TRIPOS>BOND
     1    1    2 1    
     2    1   72 1    
     3    1   73 1    
     4    1   74 1    
     5    2    3 2    
     6    2    4 am   BACKBONE|DICT|INTERRES
     7    4    5 1    
     8    4   75 1    
     9    5    6 1    
    10    5   35 1    
    11    5   76 1    
    12    6    7 1    
    13    6   77 1    
    14    6   78 1    
    15    7    8 1    
    16    8    9 1    
    17    8   79 1    
    18    8   80 1    
    19    9   10 ar   
    20    9   14 ar   
    21   10   11 ar   
    22   10   81 1    
    23   11   12 ar   
    24   11   71 1    
    25   12   13 ar   
    26   12   82 1    
    27   13   14 ar   
    28   13   15 1    
    29   14   83 1    
    30   15   16 1    
    31   15   84 1    
    32   15   85 1    
    33   16   17 1    
    34   17   18 1    
    35   17   86 1    
    36   17   87 1    
    37   18   19 1    
    38   18   37 1    
    39   18   88 1    
    40   19   20 am   BACKBONE|DICT|INTERRES
    41   19   89 1    
    42   20   21 2    
    43   20   22 1    
    44   22   23 1    
    45   22   24 1    
    46   22   90 1    
    47   23   91 1    
    48   23   92 1    
    49   23   93 1    
    50   24   25 am   BACKBONE|DICT|INTERRES
    51   24   94 1    
    52   25   26 2    
    53   25   27 1    
    54   27   28 1    
    55   27   29 1    
    56   27   95 1    
    57   28   96 1    
    58   28   97 1    
    59   28   98 1    
    60   29   30 am   BACKBONE|DICT|INTERRES
    61   29   99 1    
    62   30   31 2    
    63   30   32 1    
    64   32   33 1    
    65   32   34 1    
    66   32  100 1    
    67   33  101 1    
    68   33  102 1    
    69   33  103 1    
    70   34   35 am   BACKBONE|DICT|INTERRES
    71   34  104 1    
    72   35   36 2    
    73   37   38 2    
    74   37   39 am   BACKBONE|DICT|INTERRES
    75   39   40 1    
    76   39  105 1    
    77   40   41 1    
    78   40   42 1    
    79   40  106 1    
    80   41  107 1    
    81   41  108 1    
    82   41  109 1    
    83   42   43 2    
    84   42   44 am   BACKBONE|DICT|INTERRES
    85   44   45 1    
    86   44  110 1    
    87   45   46 1    
    88   45   47 1    
    89   45  111 1    
    90   46  112 1    
    91   46  113 1    
    92   46  114 1    
    93   47   48 2    
    94   47   49 am   BACKBONE|DICT|INTERRES
    95   49   50 1    
    96   49  115 1    
    97   50   51 1    
    98   50   52 1    
    99   50  116 1    
   100   51  117 1    
   101   51  118 1    
   102   51  119 1    
   103   52   53 2    
   104   52   54 am   BACKBONE|DICT|INTERRES
   105   54   55 1    
   106   54  120 1    
   107   55   56 1    
   108   55   57 1    
   109   55  121 1    
   110   56  122 1    
   111   56  123 1    
   112   56  124 1    
   113   57   58 2    
   114   57   59 am   BACKBONE|DICT|INTERRES
   115   59   60 1    
   116   59  125 1    
   117   60   61 1    
   118   60   62 1    
   119   60  126 1    
   120   61  127 1    
   121   61  128 1    
   122   61  129 1    
   123   62   63 2    
   124   62   64 am   BACKBONE|DICT|INTERRES
   125   64   65 1    
   126   64  130 1    
   127   65   66 1    
   128   65   69 1    
   129   65  131 1    
   130   66   67 am   BACKBONE|DICT|INTERRES
   131   66   68 2    
   132   67  132 1    
   133   67  133 1    
   134   69   70 1    
   135   69  134 1    
   136   69  135 1    
   137   70   71 1    
   138   71  136 1    
   139   71  137 1    
@<TRIPOS>SUBSTRUCTURE
     1 UNK         1 GROUP             0       ****    0 ROOT    
