@<TRIPOS>MOLECULE
3R136
137   139    1
SMALL
USER_CHARGES


@<TRIPOS>ATOM
      1 CA         27.6994   21.5644   -1.9642 C.3       0 UNK        -0.1979 
      2 C          27.9207   22.1110   -0.5624 C.2       0 UNK         0.4864 
      3 O          27.1157   21.8380    0.3298 O.2       0 UNK        -0.5359 
      4 N          28.9960   22.8897   -0.3684 N.am      1 UNK        -0.4318 
      5 CA         29.4112   23.5177    0.8935 C.3       1 UNK         0.0824 
      6 C6         30.0283   22.5013    1.8982 C.3       12 UNK        -0.0944 
      7 S7         31.7120   22.0250    1.3771 S.3       12 UNK        -0.2672 
      8 C8         32.7644   22.9977    2.5136 C.3       12 UNK         0.0333 
      9 C9         32.3444   24.4606    2.5926 C.ar      12 UNK        -0.0807 
     10 C10        31.8031   24.9727    3.7758 C.ar      12 UNK        -0.0894 
     11 C11        31.3696   26.3000    3.8425 C.ar      12 UNK        -0.0804 
     12 C12        31.4523   27.1092    2.7061 C.ar      12 UNK        -0.0824 
     13 C13        31.9876   26.6064    1.5163 C.ar      12 UNK        -0.0762 
     14 C14        32.4616   25.2918    1.4750 C.ar      12 UNK        -0.0782 
     15 C15        32.0316   27.4686    0.2655 C.3       12 UNK         0.0230 
     16 S16        30.7244   26.9688   -0.9026 S.3       12 UNK        -0.2608 
     17 C17        29.8769   28.5482   -1.2715 C.3       12 UNK        -0.0989 
     18 CA         28.4898   28.7089   -0.5844 C.3       5 UNK         0.0716 
     19 N          27.6048   27.5639   -0.8268 N.am      5 UNK        -0.4135 
     20 C          26.8461   27.4308   -1.9212 C.2       4 UNK         0.5031 
     21 O          26.6454   28.3437   -2.7240 O.2       4 UNK        -0.5229 
     22 CA         26.2405   26.0513   -2.2169 C.3       4 UNK         0.0329 
     23 CB         27.2898   25.1586   -2.9008 C.3       4 UNK        -0.2001 
     24 N          25.7171   25.3589   -1.0333 N.am      4 UNK        -0.4303 
     25 C          24.4610   24.8929   -0.9330 C.2       3 UNK         0.5044 
     26 O          23.5852   25.1203   -1.7693 O.2       3 UNK        -0.5152 
     27 CA         24.0987   23.9895    0.2631 C.3       3 UNK         0.0319 
     28 CB         23.7687   22.5663   -0.2195 C.3       3 UNK        -0.2001 
     29 N          25.1561   23.9085    1.2713 N.am      3 UNK        -0.4354 
     30 C          25.2701   24.7476    2.3104 C.2       2 UNK         0.4964 
     31 O          24.4480   25.6277    2.5629 O.2       2 UNK        -0.5047 
     32 CA         26.5128   24.6065    3.2140 C.3       2 UNK         0.0288 
     33 CB         26.1577   23.8566    4.5076 C.3       2 UNK        -0.2113 
     34 N          27.6555   23.9476    2.5760 N.am      2 UNK        -0.4145 
     35 C          28.2805   24.3884    1.4750 C.2       1 UNK         0.5006 
     36 O          27.9520   25.4154    0.8769 O.2       1 UNK        -0.5103 
     37 C          28.5635   29.0870    0.9065 C.2       5 UNK         0.5055 
     38 O          29.5745   29.6357    1.3443 O.2       5 UNK        -0.5220 
     39 N          27.4732   28.8572    1.6554 N.am      6 UNK        -0.4450 
     40 CA         27.3378   29.1612    3.0898 C.3       6 UNK         0.0367 
     41 CB         25.9435   28.7267    3.5669 C.3       6 UNK        -0.1929 
     42 C          27.5747   30.6336    3.4851 C.2       6 UNK         0.5070 
     43 O          27.8502   30.9048    4.6538 O.2       6 UNK        -0.5237 
     44 N          27.4524   31.5560    2.5210 N.am      7 UNK        -0.4739 
     45 CA         27.7437   32.9810    2.6852 C.3       7 UNK         0.0276 
     46 CB         27.1394   33.7534    1.5010 C.3       7 UNK        -0.1927 
     47 C          29.2467   33.2945    2.8205 C.2       7 UNK         0.5013 
     48 O          29.5821   34.3574    3.3460 O.2       7 UNK        -0.5193 
     49 N          30.1229   32.3979    2.3430 N.am      8 UNK        -0.4253 
     50 CA         31.5743   32.5306    2.4667 C.3       8 UNK         0.0242 
     51 CB         32.2572   31.7330    1.3438 C.3       8 UNK        -0.2000 
     52 C          32.0364   32.0227    3.8395 C.2       8 UNK         0.4948 
     53 O          31.5339   31.0030    4.3126 O.2       8 UNK        -0.5275 
     54 N          33.0129   32.7185    4.4355 N.am      9 UNK        -0.4246 
     55 CA         33.6169   32.3505    5.7212 C.3       9 UNK         0.0261 
     56 CB         34.2364   33.6042    6.3613 C.3       9 UNK        -0.1959 
     57 C          34.6714   31.2342    5.6039 C.2       9 UNK         0.5033 
     58 O          35.0085   30.6158    6.6152 O.2       9 UNK        -0.5390 
     59 N          35.1890   30.9974    4.3903 N.am      10 UNK        -0.4215 
     60 CA         36.2370   30.0226    4.0746 C.3       10 UNK         0.0240 
     61 CB         36.9240   30.4466    2.7620 C.3       10 UNK        -0.1982 
     62 C          35.7089   28.5737    4.0269 C.2       10 UNK         0.4970 
     63 O          35.8662   27.8942    3.0110 O.2       10 UNK        -0.4916 
     64 N          35.0906   28.1296    5.1260 N.am      11 UNK        -0.4279 
     65 CA         34.5223   26.7820    5.2887 C.3       11 UNK         0.1003 
     66 C          35.5700   25.6631    5.5571 C.2       11 UNK         0.5709 
     67 N          36.8347   25.9784    5.8125 N.am      11 UNK        -0.7358 
     68 O          35.2302   24.4828    5.5258 O.2       11 UNK        -0.4999 
     69 C69        33.3907   26.7555    6.3526 C.3       12 UNK        -0.0954 
     70 S70        32.0386   27.9265    5.9871 S.3       12 UNK        -0.2268 
     71 C71        30.8218   26.8633    5.1452 C.3       12 UNK         0.0203 
     72 H72        28.4317   21.9496   -2.6735 H         1 UNK         0.0888 
     73 H73        27.7720   20.4773   -1.9565 H         1 UNK         0.0888 
     74 H74        26.7063   21.8364   -2.3204 H         1 UNK         0.0888 
     75 H75        29.6059   23.0795   -1.1509 H         1 UNK         0.3017 
     76 H76        30.1801   24.2370    0.6172 H         1 UNK         0.0873 
     77 H77        30.0863   22.9073    2.9088 H         1 UNK         0.0745 
     78 H78        29.4165   21.6007    1.9723 H         1 UNK         0.0745 
     79 H79        32.7353   22.5347    3.5013 H         1 UNK         0.0705 
     80 H80        33.8009   22.9374    2.1791 H         1 UNK         0.0705 
     81 H81        31.7229   24.3388    4.6484 H         1 UNK         0.1334 
     82 H82        31.1046   28.1324    2.7549 H         1 UNK         0.1417 
     83 H83        32.8691   24.8970    0.5540 H         1 UNK         0.1562 
     84 H84        33.0037   27.3685   -0.2193 H         1 UNK         0.0748 
     85 H85        31.9306   28.5201    0.5309 H         1 UNK         0.0748 
     86 H86        29.7341   28.5812   -2.3526 H         1 UNK         0.0940 
     87 H87        30.5301   29.3951   -1.0542 H         1 UNK         0.0940 
     88 H88        28.0280   29.5914   -1.0322 H         1 UNK         0.0703 
     89 H89        27.7518   26.7643   -0.2097 H         1 UNK         0.3081 
     90 H90        25.4403   26.2209   -2.9403 H         1 UNK         0.0719 
     91 H91        28.1293   24.9438   -2.2390 H         1 UNK         0.0809 
     92 H92        26.8554   24.2114   -3.2189 H         1 UNK         0.0809 
     93 H93        27.6943   25.6421   -3.7913 H         1 UNK         0.0809 
     94 H94        26.3721   25.1819   -0.2792 H         1 UNK         0.2990 
     95 H95        23.1947   24.4023    0.7158 H         1 UNK         0.0690 
     96 H96        23.4845   21.9212    0.6120 H         1 UNK         0.0788 
     97 H97        24.6154   22.1042   -0.7277 H         1 UNK         0.0788 
     98 H98        22.9336   22.5739   -0.9213 H         1 UNK         0.0788 
     99 H99        25.8682   23.1977    1.1236 H         1 UNK         0.2993 
    100 H100       26.8355   25.6140    3.4812 H         1 UNK         0.0949 
    101 H101       27.0011   23.8334    5.1981 H         1 UNK         0.0767 
    102 H102       25.3305   24.3432    5.0266 H         1 UNK         0.0767 
    103 H103       25.8567   22.8274    4.3071 H         1 UNK         0.0767 
    104 H104       27.9444   23.0645    2.9707 H         1 UNK         0.3013 
    105 H105       26.6762   28.4272    1.2086 H         1 UNK         0.3121 
    106 H106       28.0859   28.5655    3.6164 H         1 UNK         0.0774 
    107 H107       25.8195   28.9081    4.6356 H         1 UNK         0.0815 
    108 H108       25.1519   29.2709    3.0504 H         1 UNK         0.0815 
    109 H109       25.7795   27.6652    3.4048 H         1 UNK         0.0815 
    110 H110       27.2076   31.2435    1.5932 H         1 UNK         0.2987 
    111 H111       27.2582   33.3244    3.6016 H         1 UNK         0.0949 
    112 H112       27.5795   33.4466    0.5514 H         1 UNK         0.0806 
    113 H113       26.0613   33.6043    1.4373 H         1 UNK         0.0806 
    114 H114       27.3099   34.8258    1.6072 H         1 UNK         0.0806 
    115 H115       29.7830   31.5025    2.0033 H         1 UNK         0.3010 
    116 H116       31.8477   33.5824    2.3559 H         1 UNK         0.0829 
    117 H117       31.8978   32.0391    0.3612 H         1 UNK         0.0813 
    118 H118       33.3373   31.8824    1.3566 H         1 UNK         0.0813 
    119 H119       32.0758   30.6633    1.4484 H         1 UNK         0.0813 
    120 H120       33.3669   33.5530    3.9886 H         1 UNK         0.3038 
    121 H121       32.8312   31.9842    6.3860 H         1 UNK         0.0769 
    122 H122       35.0335   34.0225    5.7454 H         1 UNK         0.0811 
    123 H123       34.6668   33.3720    7.3366 H         1 UNK         0.0811 
    124 H124       33.4879   34.3813    6.5175 H         1 UNK         0.0811 
    125 H125       34.8262   31.5314    3.6153 H         1 UNK         0.3204 
    126 H126       36.9895   30.0587    4.8654 H         1 UNK         0.0748 
    127 H127       37.7477   29.7748    2.5161 H         1 UNK         0.0771 
    128 H128       36.2303   30.4345    1.9201 H         1 UNK         0.0771 
    129 H129       37.3422   31.4505    2.8387 H         1 UNK         0.0771 
    130 H130       34.9825   28.7704    5.9059 H         1 UNK         0.2980 
    131 H131       34.0749   26.5165    4.3309 H         1 UNK         0.0545 
    132 H132       37.1254   26.9420    5.8438 H         1 UNK         0.3459 
    133 H133       37.5023   25.2423    5.9802 H         1 UNK         0.3459 
    134 H134       32.9674   25.7541    6.4484 H         1 UNK         0.0616 
    135 H135       33.7943   27.0068    7.3348 H         1 UNK         0.0616 
    136 H136       29.9267   27.4513    4.9383 H         1 UNK         0.0634 
    137 H137       30.5140   26.0616    5.8182 H         1 UNK         0.0634 
@<TRIPOS>BOND
     1    1    2 1    
     2    1   72 1    
     3    1   73 1    
     4    1   74 1    
     5    2    3 2    
     6    2    4 am   BACKBONE|DICT|INTERRES
     7    4    5 1    
     8    4   75 1    
     9    5    6 1    
    10    5   35 1    
    11    5   76 1    
    12    6    7 1    
    13    6   77 1    
    14    6   78 1    
    15    7    8 1    
    16    8    9 1    
    17    8   79 1    
    18    8   80 1    
    19    9   10 ar   
    20    9   14 ar   
    21   10   11 ar   
    22   10   81 1    
    23   11   12 ar   
    24   11   71 1    
    25   12   13 ar   
    26   12   82 1    
    27   13   14 ar   
    28   13   15 1    
    29   14   83 1    
    30   15   16 1    
    31   15   84 1    
    32   15   85 1    
    33   16   17 1    
    34   17   18 1    
    35   17   86 1    
    36   17   87 1    
    37   18   19 1    
    38   18   37 1    
    39   18   88 1    
    40   19   20 am   BACKBONE|DICT|INTERRES
    41   19   89 1    
    42   20   21 2    
    43   20   22 1    
    44   22   23 1    
    45   22   24 1    
    46   22   90 1    
    47   23   91 1    
    48   23   92 1    
    49   23   93 1    
    50   24   25 am   BACKBONE|DICT|INTERRES
    51   24   94 1    
    52   25   26 2    
    53   25   27 1    
    54   27   28 1    
    55   27   29 1    
    56   27   95 1    
    57   28   96 1    
    58   28   97 1    
    59   28   98 1    
    60   29   30 am   BACKBONE|DICT|INTERRES
    61   29   99 1    
    62   30   31 2    
    63   30   32 1    
    64   32   33 1    
    65   32   34 1    
    66   32  100 1    
    67   33  101 1    
    68   33  102 1    
    69   33  103 1    
    70   34   35 am   BACKBONE|DICT|INTERRES
    71   34  104 1    
    72   35   36 2    
    73   37   38 2    
    74   37   39 am   BACKBONE|DICT|INTERRES
    75   39   40 1    
    76   39  105 1    
    77   40   41 1    
    78   40   42 1    
    79   40  106 1    
    80   41  107 1    
    81   41  108 1    
    82   41  109 1    
    83   42   43 2    
    84   42   44 am   BACKBONE|DICT|INTERRES
    85   44   45 1    
    86   44  110 1    
    87   45   46 1    
    88   45   47 1    
    89   45  111 1    
    90   46  112 1    
    91   46  113 1    
    92   46  114 1    
    93   47   48 2    
    94   47   49 am   BACKBONE|DICT|INTERRES
    95   49   50 1    
    96   49  115 1    
    97   50   51 1    
    98   50   52 1    
    99   50  116 1    
   100   51  117 1    
   101   51  118 1    
   102   51  119 1    
   103   52   53 2    
   104   52   54 am   BACKBONE|DICT|INTERRES
   105   54   55 1    
   106   54  120 1    
   107   55   56 1    
   108   55   57 1    
   109   55  121 1    
   110   56  122 1    
   111   56  123 1    
   112   56  124 1    
   113   57   58 2    
   114   57   59 am   BACKBONE|DICT|INTERRES
   115   59   60 1    
   116   59  125 1    
   117   60   61 1    
   118   60   62 1    
   119   60  126 1    
   120   61  127 1    
   121   61  128 1    
   122   61  129 1    
   123   62   63 2    
   124   62   64 am   BACKBONE|DICT|INTERRES
   125   64   65 1    
   126   64  130 1    
   127   65   66 1    
   128   65   69 1    
   129   65  131 1    
   130   66   67 am   BACKBONE|DICT|INTERRES
   131   66   68 2    
   132   67  132 1    
   133   67  133 1    
   134   69   70 1    
   135   69  134 1    
   136   69  135 1    
   137   70   71 1    
   138   71  136 1    
   139   71  137 1    
@<TRIPOS>SUBSTRUCTURE
     1 UNK         1 GROUP             0       ****    0 ROOT    
