@<TRIPOS>MOLECULE
3R136
137   139    1
SMALL
USER_CHARGES


@<TRIPOS>ATOM
      1 CA         27.9069   24.8443   -2.4347 C.3       0 UNK        -0.1979 
      2 C          28.2419   24.3360   -1.0417 C.2       0 UNK         0.4864 
      3 O          27.9306   25.0098   -0.0575 O.2       0 UNK        -0.5359 
      4 N          28.8537   23.1449   -0.9509 N.am      1 UNK        -0.4318 
      5 CA         29.3111   22.5050    0.2922 C.3       1 UNK         0.0824 
      6 C6         30.0547   21.1671    0.0449 C.3       12 UNK        -0.0944 
      7 S7         31.3788   21.2697   -1.2036 S.3       12 UNK        -0.2672 
      8 C8         32.8304   21.6739   -0.1765 C.3       12 UNK         0.0333 
      9 C9         32.8203   23.1196    0.3055 C.ar      12 UNK        -0.0807 
     10 C10        32.9786   23.4180    1.6637 C.ar      12 UNK        -0.0894 
     11 C11        33.0036   24.7463    2.1044 C.ar      12 UNK        -0.0804 
     12 C12        32.8416   25.7757    1.1684 C.ar      12 UNK        -0.0824 
     13 C13        32.6918   25.4930   -0.1904 C.ar      12 UNK        -0.0762 
     14 C14        32.6860   24.1635   -0.6152 C.ar      12 UNK        -0.0782 
     15 C15        32.5721   26.6170   -1.2080 C.3       12 UNK         0.0230 
     16 S16        30.8530   27.1775   -1.4018 S.3       12 UNK        -0.2608 
     17 C17        30.7513   28.4985   -0.1493 C.3       12 UNK        -0.0989 
     18 CA         29.4215   28.4656    0.6464 C.3       5 UNK         0.0716 
     19 N          29.2384   27.2348    1.4236 N.am      5 UNK        -0.4135 
     20 C          29.7985   26.9347    2.6063 C.2       4 UNK         0.5031 
     21 O          30.7100   27.5896    3.1192 O.2       4 UNK        -0.5229 
     22 CA         29.2110   25.7274    3.3694 C.3       4 UNK         0.0329 
     23 CB         29.2769   25.9273    4.8950 C.3       4 UNK        -0.2001 
     24 N          27.8414   25.3664    2.9760 N.am      4 UNK        -0.4303 
     25 C          26.7460   26.1467    2.9803 C.2       3 UNK         0.5044 
     26 O          26.7453   27.3142    3.3688 O.2       3 UNK        -0.5152 
     27 CA         25.4446   25.5624    2.3994 C.3       3 UNK         0.0319 
     28 CB         24.8667   26.4940    1.3183 C.3       3 UNK        -0.2001 
     29 N          25.6633   24.2448    1.8026 N.am      3 UNK        -0.4354 
     30 C          25.2935   23.0765    2.3441 C.2       2 UNK         0.4964 
     31 O          24.6356   22.9760    3.3799 O.2       2 UNK        -0.5047 
     32 CA         25.7514   21.7954    1.6204 C.3       2 UNK         0.0288 
     33 CB         24.6284   21.2582    0.7183 C.3       2 UNK        -0.2113 
     34 N          26.9686   21.9692    0.8199 N.am      2 UNK        -0.4145 
     35 C          28.1783   22.2779    1.3127 C.2       1 UNK         0.5006 
     36 O          28.4073   22.4272    2.5129 O.2       1 UNK        -0.5103 
     37 C          29.2377   29.7219    1.5300 C.2       5 UNK         0.5055 
     38 O          30.1479   30.5502    1.6079 O.2       5 UNK        -0.5220 
     39 N          28.0923   29.8205    2.2243 N.am      6 UNK        -0.4450 
     40 CA         27.7713   30.8546    3.2217 C.3       6 UNK         0.0367 
     41 CB         26.3306   30.6583    3.7212 C.3       6 UNK        -0.1929 
     42 C          27.9737   32.3142    2.7746 C.2       6 UNK         0.5070 
     43 O          28.2840   33.1639    3.6091 O.2       6 UNK        -0.5237 
     44 N          27.8047   32.5787    1.4739 N.am      7 UNK        -0.4739 
     45 CA         28.0044   33.8930    0.8626 C.3       7 UNK         0.0276 
     46 CB         27.2444   33.9323   -0.4741 C.3       7 UNK        -0.1927 
     47 C          29.4836   34.2704    0.6471 C.2       7 UNK         0.5013 
     48 O          29.7500   35.4435    0.3800 O.2       7 UNK        -0.5193 
     49 N          30.4061   33.2986    0.7224 N.am      8 UNK        -0.4253 
     50 CA         31.8179   33.4767    0.3683 C.3       8 UNK         0.0242 
     51 CB         32.1017   32.7427   -0.9538 C.3       8 UNK        -0.2000 
     52 C          32.7920   33.0028    1.4565 C.2       8 UNK         0.4948 
     53 O          33.8093   33.6672    1.6611 O.2       8 UNK        -0.5275 
     54 N          32.5015   31.8682    2.1059 N.am      9 UNK        -0.4246 
     55 CA         33.4051   31.1985    3.0445 C.3       9 UNK         0.0261 
     56 CB         33.9143   29.8874    2.4216 C.3       9 UNK        -0.1959 
     57 C          32.7337   30.9397    4.3976 C.2       9 UNK         0.5033 
     58 O          33.2851   31.3474    5.4207 O.2       9 UNK        -0.5390 
     59 N          31.5732   30.2647    4.3832 N.am      10 UNK        -0.4215 
     60 CA         30.7962   29.8295    5.5540 C.3       10 UNK         0.0240 
     61 CB         30.2366   31.0443    6.3281 C.3       10 UNK        -0.1982 
     62 C          31.5602   28.8460    6.4673 C.2       10 UNK         0.4970 
     63 O          31.3927   28.8871    7.6881 O.2       10 UNK        -0.4916 
     64 N          32.3753   27.9699    5.8661 N.am      11 UNK        -0.4279 
     65 CA         33.1934   26.9362    6.5277 C.3       11 UNK         0.1003 
     66 C          32.3807   25.7269    7.0851 C.2       11 UNK         0.5709 
     67 N          31.2990   25.9681    7.8130 N.am      11 UNK        -0.7358 
     68 O          32.7213   24.5666    6.8688 O.2       11 UNK        -0.4999 
     69 C69        34.4506   26.5436    5.6904 C.3       12 UNK        -0.0954 
     70 S70        34.2509   26.5152    3.8766 S.3       12 UNK        -0.2268 
     71 C71        33.2011   25.0523    3.5892 C.3       12 UNK         0.0203 
     72 H72        28.3373   25.8338   -2.5844 H         1 UNK         0.0888 
     73 H73        28.2925   24.1860   -3.2129 H         1 UNK         0.0888 
     74 H74        26.8268   24.9213   -2.5551 H         1 UNK         0.0888 
     75 H75        29.0957   22.6490   -1.7974 H         1 UNK         0.3017 
     76 H76        30.0116   23.2026    0.7558 H         1 UNK         0.0873 
     77 H77        29.3548   20.4017   -0.2969 H         1 UNK         0.0745 
     78 H78        30.4786   20.7886    0.9774 H         1 UNK         0.0745 
     79 H79        32.8878   20.9771    0.6612 H         1 UNK         0.0705 
     80 H80        33.7315   21.5139   -0.7699 H         1 UNK         0.0705 
     81 H81        33.0957   22.6150    2.3788 H         1 UNK         0.1334 
     82 H82        32.8459   26.8040    1.4981 H         1 UNK         0.1417 
     83 H83        32.5755   23.9379   -1.6673 H         1 UNK         0.1562 
     84 H84        32.9334   26.2756   -2.1793 H         1 UNK         0.0748 
     85 H85        33.2147   27.4540   -0.9304 H         1 UNK         0.0748 
     86 H86        30.8547   29.4452   -0.6822 H         1 UNK         0.0940 
     87 H87        31.5992   28.4436    0.5322 H         1 UNK         0.0940 
     88 H88        28.6044   28.4901   -0.0762 H         1 UNK         0.0703 
     89 H89        28.5744   26.5692    1.0388 H         1 UNK         0.3081 
     90 H90        29.8402   24.8743    3.1120 H         1 UNK         0.0719 
     91 H91        30.3013   26.0974    5.2148 H         1 UNK         0.0809 
     92 H92        28.6910   26.7881    5.2182 H         1 UNK         0.0809 
     93 H93        28.9136   25.0496    5.4290 H         1 UNK         0.0809 
     94 H94        27.7382   24.4158    2.6419 H         1 UNK         0.2990 
     95 H95        24.7257   25.4995    3.2186 H         1 UNK         0.0690 
     96 H96        23.9395   26.0946    0.9072 H         1 UNK         0.0788 
     97 H97        25.5659   26.6351    0.4928 H         1 UNK         0.0788 
     98 H98        24.6386   27.4793    1.7270 H         1 UNK         0.0788 
     99 H99        26.2347   24.2388    0.9646 H         1 UNK         0.2993 
    100 H100       25.9633   21.0489    2.3892 H         1 UNK         0.0949 
    101 H101       24.9035   20.3049    0.2661 H         1 UNK         0.0767 
    102 H102       23.7145   21.0909    1.2904 H         1 UNK         0.0767 
    103 H103       24.3869   21.9555   -0.0851 H         1 UNK         0.0767 
    104 H104       26.8724   21.8743   -0.1810 H         1 UNK         0.3013 
    105 H105       27.4472   29.0396    2.1879 H         1 UNK         0.3121 
    106 H106       28.4393   30.6917    4.0652 H         1 UNK         0.0774 
    107 H107       26.0497   31.4387    4.4301 H         1 UNK         0.0815 
    108 H108       25.6117   30.6873    2.9017 H         1 UNK         0.0815 
    109 H109       26.2145   29.7070    4.2390 H         1 UNK         0.0815 
    110 H110       27.5453   31.8202    0.8601 H         1 UNK         0.2987 
    111 H111       27.5730   34.6507    1.5209 H         1 UNK         0.0949 
    112 H112       27.6303   33.1958   -1.1801 H         1 UNK         0.0806 
    113 H113       26.1808   33.7392   -0.3327 H         1 UNK         0.0806 
    114 H114       27.3324   34.9121   -0.9459 H         1 UNK         0.0806 
    115 H115       30.1140   32.3648    0.9953 H         1 UNK         0.3010 
    116 H116       32.0344   34.5352    0.2086 H         1 UNK         0.0829 
    117 H117       31.4881   33.1364   -1.7643 H         1 UNK         0.0813 
    118 H118       33.1447   32.8602   -1.2512 H         1 UNK         0.0813 
    119 H119       31.9036   31.6736   -0.8725 H         1 UNK         0.0813 
    120 H120       31.6236   31.3922    1.9010 H         1 UNK         0.3038 
    121 H121       34.2770   31.8256    3.2424 H         1 UNK         0.0769 
    122 H122       34.6341   29.4018    3.0812 H         1 UNK         0.0811 
    123 H123       34.4187   30.0690    1.4725 H         1 UNK         0.0811 
    124 H124       33.1061   29.1788    2.2405 H         1 UNK         0.0811 
    125 H125       31.2205   29.9367    3.4912 H         1 UNK         0.3204 
    126 H126       29.9486   29.2668    5.1613 H         1 UNK         0.0748 
    127 H127       29.4915   30.7304    7.0600 H         1 UNK         0.0771 
    128 H128       31.0210   31.5724    6.8713 H         1 UNK         0.0771 
    129 H129       29.7576   31.7628    5.6638 H         1 UNK         0.0771 
    130 H130       32.3986   27.9570    4.8549 H         1 UNK         0.2980 
    131 H131       33.5943   27.3980    7.4321 H         1 UNK         0.0545 
    132 H132       31.0402   26.9269    8.0122 H         1 UNK         0.3459 
    133 H133       30.7636   25.2013    8.1871 H         1 UNK         0.3459 
    134 H134       34.8878   25.5987    6.0171 H         1 UNK         0.0616 
    135 H135       35.2274   27.2850    5.8832 H         1 UNK         0.0616 
    136 H136       32.2261   25.2157    4.0463 H         1 UNK         0.0634 
    137 H137       33.6510   24.1980    4.0973 H         1 UNK         0.0634 
@<TRIPOS>BOND
     1    1    2 1    
     2    1   72 1    
     3    1   73 1    
     4    1   74 1    
     5    2    3 2    
     6    2    4 am   BACKBONE|DICT|INTERRES
     7    4    5 1    
     8    4   75 1    
     9    5    6 1    
    10    5   35 1    
    11    5   76 1    
    12    6    7 1    
    13    6   77 1    
    14    6   78 1    
    15    7    8 1    
    16    8    9 1    
    17    8   79 1    
    18    8   80 1    
    19    9   10 ar   
    20    9   14 ar   
    21   10   11 ar   
    22   10   81 1    
    23   11   12 ar   
    24   11   71 1    
    25   12   13 ar   
    26   12   82 1    
    27   13   14 ar   
    28   13   15 1    
    29   14   83 1    
    30   15   16 1    
    31   15   84 1    
    32   15   85 1    
    33   16   17 1    
    34   17   18 1    
    35   17   86 1    
    36   17   87 1    
    37   18   19 1    
    38   18   37 1    
    39   18   88 1    
    40   19   20 am   BACKBONE|DICT|INTERRES
    41   19   89 1    
    42   20   21 2    
    43   20   22 1    
    44   22   23 1    
    45   22   24 1    
    46   22   90 1    
    47   23   91 1    
    48   23   92 1    
    49   23   93 1    
    50   24   25 am   BACKBONE|DICT|INTERRES
    51   24   94 1    
    52   25   26 2    
    53   25   27 1    
    54   27   28 1    
    55   27   29 1    
    56   27   95 1    
    57   28   96 1    
    58   28   97 1    
    59   28   98 1    
    60   29   30 am   BACKBONE|DICT|INTERRES
    61   29   99 1    
    62   30   31 2    
    63   30   32 1    
    64   32   33 1    
    65   32   34 1    
    66   32  100 1    
    67   33  101 1    
    68   33  102 1    
    69   33  103 1    
    70   34   35 am   BACKBONE|DICT|INTERRES
    71   34  104 1    
    72   35   36 2    
    73   37   38 2    
    74   37   39 am   BACKBONE|DICT|INTERRES
    75   39   40 1    
    76   39  105 1    
    77   40   41 1    
    78   40   42 1    
    79   40  106 1    
    80   41  107 1    
    81   41  108 1    
    82   41  109 1    
    83   42   43 2    
    84   42   44 am   BACKBONE|DICT|INTERRES
    85   44   45 1    
    86   44  110 1    
    87   45   46 1    
    88   45   47 1    
    89   45  111 1    
    90   46  112 1    
    91   46  113 1    
    92   46  114 1    
    93   47   48 2    
    94   47   49 am   BACKBONE|DICT|INTERRES
    95   49   50 1    
    96   49  115 1    
    97   50   51 1    
    98   50   52 1    
    99   50  116 1    
   100   51  117 1    
   101   51  118 1    
   102   51  119 1    
   103   52   53 2    
   104   52   54 am   BACKBONE|DICT|INTERRES
   105   54   55 1    
   106   54  120 1    
   107   55   56 1    
   108   55   57 1    
   109   55  121 1    
   110   56  122 1    
   111   56  123 1    
   112   56  124 1    
   113   57   58 2    
   114   57   59 am   BACKBONE|DICT|INTERRES
   115   59   60 1    
   116   59  125 1    
   117   60   61 1    
   118   60   62 1    
   119   60  126 1    
   120   61  127 1    
   121   61  128 1    
   122   61  129 1    
   123   62   63 2    
   124   62   64 am   BACKBONE|DICT|INTERRES
   125   64   65 1    
   126   64  130 1    
   127   65   66 1    
   128   65   69 1    
   129   65  131 1    
   130   66   67 am   BACKBONE|DICT|INTERRES
   131   66   68 2    
   132   67  132 1    
   133   67  133 1    
   134   69   70 1    
   135   69  134 1    
   136   69  135 1    
   137   70   71 1    
   138   71  136 1    
   139   71  137 1    
@<TRIPOS>SUBSTRUCTURE
     1 UNK         1 GROUP             0       ****    0 ROOT    
