@<TRIPOS>MOLECULE
3R136
137   139    1
SMALL
USER_CHARGES


@<TRIPOS>ATOM
      1 CA         34.2470   25.5090   -1.4258 C.3       0 UNK        -0.1979 
      2 C          33.1624   24.8520   -0.5857 C.2       0 UNK         0.4864 
      3 O          33.3879   24.5501    0.5861 O.2       0 UNK        -0.5359 
      4 N          31.9915   24.6235   -1.1876 N.am      1 UNK        -0.4318 
      5 CA         30.8322   23.9898   -0.5649 C.3       1 UNK         0.0824 
      6 C6         31.0136   22.4517   -0.4253 C.3       12 UNK        -0.0944 
      7 S7         29.6761   21.6133    0.4980 S.3       12 UNK        -0.2672 
      8 C8         30.4324   21.3198    2.1274 C.3       12 UNK         0.0333 
      9 C9         30.1524   22.4666    3.0857 C.ar      12 UNK        -0.0807 
     10 C10        31.0209   23.5586    3.1559 C.ar      12 UNK        -0.0894 
     11 C11        30.7658   24.6116    4.0387 C.ar      12 UNK        -0.0804 
     12 C12        29.6499   24.5522    4.8782 C.ar      12 UNK        -0.0824 
     13 C13        28.7646   23.4708    4.8077 C.ar      12 UNK        -0.0762 
     14 C14        29.0220   22.4319    3.9082 C.ar      12 UNK        -0.0782 
     15 C15        27.5298   23.4180    5.6989 C.3       12 UNK         0.0230 
     16 S16        26.0687   24.1534    4.8896 S.3       12 UNK        -0.2608 
     17 C17        26.5062   25.9224    4.9155 C.3       12 UNK        -0.0989 
     18 CA         27.0415   26.3977    3.5312 C.3       5 UNK         0.0716 
     19 N          25.9967   26.8164    2.5901 N.am      5 UNK        -0.4135 
     20 C          25.1323   27.8352    2.7345 C.2       4 UNK         0.5031 
     21 O          25.0326   28.5060    3.7625 O.2       4 UNK        -0.5229 
     22 CA         24.2364   28.2101    1.5332 C.3       4 UNK         0.0329 
     23 CB         24.5210   29.6534    1.0803 C.3       4 UNK        -0.2001 
     24 N          24.3892   27.3268    0.3764 N.am      4 UNK        -0.4303 
     25 C          23.8837   26.0913    0.2650 C.2       3 UNK         0.5044 
     26 O          23.1310   25.5823    1.0954 O.2       3 UNK        -0.5152 
     27 CA         24.3214   25.2704   -0.9655 C.3       3 UNK         0.0319 
     28 CB         23.2176   25.2799   -2.0355 C.3       3 UNK        -0.2001 
     29 N          25.5885   25.7025   -1.5765 N.am      3 UNK        -0.4354 
     30 C          26.7756   25.7413   -0.9546 C.2       2 UNK         0.4964 
     31 O          26.9327   25.4740    0.2397 O.2       2 UNK        -0.5047 
     32 CA         27.9713   26.2362   -1.7836 C.3       2 UNK         0.0288 
     33 CB         28.0359   27.7726   -1.7561 C.3       2 UNK        -0.2113 
     34 N          29.2225   25.6956   -1.2509 N.am      2 UNK        -0.4145 
     35 C          29.5986   24.4164   -1.3781 C.2       1 UNK         0.5006 
     36 O          29.0409   23.6182   -2.1353 O.2       1 UNK        -0.5103 
     37 C          28.1274   27.4869    3.6214 C.2       5 UNK         0.5055 
     38 O          28.3315   28.0875    4.6784 O.2       5 UNK        -0.5220 
     39 N          28.8033   27.7243    2.4916 N.am      6 UNK        -0.4450 
     40 CA         29.8750   28.7026    2.3623 C.3       6 UNK         0.0367 
     41 CB         29.2866   30.0439    1.8950 C.3       6 UNK        -0.1929 
     42 C          30.9212   28.2041    1.3646 C.2       6 UNK         0.5070 
     43 O          30.5695   27.5099    0.4090 O.2       6 UNK        -0.5237 
     44 N          32.1711   28.6206    1.5840 N.am      7 UNK        -0.4739 
     45 CA         33.2382   28.6224    0.5842 C.3       7 UNK         0.0276 
     46 CB         34.5316   28.0581    1.1947 C.3       7 UNK        -0.1927 
     47 C          33.4548   30.0620    0.0950 C.2       7 UNK         0.5013 
     48 O          33.5397   30.2898   -1.1116 O.2       7 UNK        -0.5193 
     49 N          33.4926   31.0075    1.0429 N.am      8 UNK        -0.4253 
     50 CA         33.5419   32.4473    0.8178 C.3       8 UNK         0.0242 
     51 CB         35.0029   32.9101    0.6605 C.3       8 UNK        -0.2000 
     52 C          32.8456   33.0872    2.0214 C.2       8 UNK         0.4948 
     53 O          33.4832   33.2765    3.0581 O.2       8 UNK        -0.5275 
     54 N          31.5248   33.2927    1.9085 N.am      9 UNK        -0.4246 
     55 CA         30.5684   33.7369    2.9425 C.3       9 UNK         0.0261 
     56 CB         30.9391   35.1220    3.5086 C.3       9 UNK        -0.1959 
     57 C          30.3262   32.7191    4.0783 C.2       9 UNK         0.5033 
     58 O          29.1920   32.5920    4.5397 O.2       9 UNK        -0.5390 
     59 N          31.3729   31.9937    4.4757 N.am      10 UNK        -0.4215 
     60 CA         31.3801   30.8591    5.3931 C.3       10 UNK         0.0240 
     61 CB         31.4690   31.3665    6.8471 C.3       10 UNK        -0.1982 
     62 C          32.5560   29.9482    4.9952 C.2       10 UNK         0.4970 
     63 O          33.0623   30.0705    3.8735 O.2       10 UNK        -0.4916 
     64 N          32.9718   29.0570    5.9005 N.am      11 UNK        -0.4279 
     65 CA         34.2051   28.2601    5.7884 C.3       11 UNK         0.1003 
     66 C          34.8713   27.9393    7.1585 C.2       11 UNK         0.5709 
     67 N          34.4831   28.5846    8.2536 N.am      11 UNK        -0.7358 
     68 O          35.7766   27.1118    7.2337 O.2       11 UNK        -0.4999 
     69 C69        34.0718   27.0364    4.8402 C.3       12 UNK        -0.0954 
     70 S70        32.8998   25.7494    5.3911 S.3       12 UNK        -0.2268 
     71 C71        31.6764   25.8278    4.0531 C.3       12 UNK         0.0203 
     72 H72        34.6949   24.7789   -2.0992 H         1 UNK         0.0888 
     73 H73        33.8421   26.3271   -2.0212 H         1 UNK         0.0888 
     74 H74        35.0365   25.9100   -0.7915 H         1 UNK         0.0888 
     75 H75        31.8582   24.9067   -2.1494 H         1 UNK         0.3017 
     76 H76        30.7094   24.4122    0.4348 H         1 UNK         0.0873 
     77 H77        31.0852   21.9894   -1.4114 H         1 UNK         0.0745 
     78 H78        31.9635   22.2333    0.0634 H         1 UNK         0.0745 
     79 H79        30.0233   20.3942    2.5352 H         1 UNK         0.0705 
     80 H80        31.5060   21.1520    2.0313 H         1 UNK         0.0705 
     81 H81        31.8900   23.5943    2.5130 H         1 UNK         0.1334 
     82 H82        29.4636   25.3610    5.5712 H         1 UNK         0.1417 
     83 H83        28.3398   21.5944    3.8476 H         1 UNK         0.1562 
     84 H84        27.7210   23.9203    6.6485 H         1 UNK         0.0748 
     85 H85        27.3031   22.3808    5.9506 H         1 UNK         0.0748 
     86 H86        27.2346   26.0744    5.7125 H         1 UNK         0.0940 
     87 H87        25.6321   26.4928    5.2289 H         1 UNK         0.0940 
     88 H88        27.5392   25.5504    3.0556 H         1 UNK         0.0703 
     89 H89        26.0308   26.3362    1.6955 H         1 UNK         0.3081 
     90 H90        23.2005   28.1564    1.8747 H         1 UNK         0.0719 
     91 H91        25.5515   29.7752    0.7436 H         1 UNK         0.0809 
     92 H92        23.8620   29.9520    0.2648 H         1 UNK         0.0809 
     93 H93        24.3604   30.3600    1.8959 H         1 UNK         0.0809 
     94 H94        24.9863   27.6573   -0.3672 H         1 UNK         0.2990 
     95 H95        24.4600   24.2414   -0.6273 H         1 UNK         0.0690 
     96 H96        23.4633   24.6185   -2.8666 H         1 UNK         0.0788 
     97 H97        23.0535   26.2806   -2.4375 H         1 UNK         0.0788 
     98 H98        22.2686   24.9357   -1.6214 H         1 UNK         0.0788 
     99 H99        25.5459   25.9629   -2.5520 H         1 UNK         0.2993 
    100 H100       27.8549   25.9009   -2.8167 H         1 UNK         0.0949 
    101 H101       28.1010   28.1564   -0.7373 H         1 UNK         0.0767 
    102 H102       28.9021   28.1421   -2.3056 H         1 UNK         0.0767 
    103 H103       27.1500   28.2129   -2.2154 H         1 UNK         0.0767 
    104 H104       29.7550   26.3103   -0.6350 H         1 UNK         0.3013 
    105 H105       28.6283   27.1635    1.6671 H         1 UNK         0.3121 
    106 H106       30.3639   28.8428    3.3266 H         1 UNK         0.0774 
    107 H107       28.7495   29.9423    0.9514 H         1 UNK         0.0815 
    108 H108       30.0724   30.7835    1.7434 H         1 UNK         0.0815 
    109 H109       28.5935   30.4495    2.6324 H         1 UNK         0.0815 
    110 H110       32.3687   29.1484    2.4298 H         1 UNK         0.2987 
    111 H111       32.9591   28.0102   -0.2757 H         1 UNK         0.0949 
    112 H112       34.8639   28.6371    2.0572 H         1 UNK         0.0806 
    113 H113       34.3971   27.0253    1.5159 H         1 UNK         0.0806 
    114 H114       35.3427   28.0686    0.4657 H         1 UNK         0.0806 
    115 H115       33.4364   30.7284    2.0182 H         1 UNK         0.3010 
    116 H116       32.9895   32.7047   -0.0888 H         1 UNK         0.0829 
    117 H117       35.0583   33.9938    0.5507 H         1 UNK         0.0813 
    118 H118       35.6104   32.6363    1.5241 H         1 UNK         0.0813 
    119 H119       35.4639   32.4696   -0.2236 H         1 UNK         0.0813 
    120 H120       31.0996   33.0646    1.0199 H         1 UNK         0.3038 
    121 H121       29.6139   33.8455    2.4245 H         1 UNK         0.0769 
    122 H122       31.8685   35.0979    4.0782 H         1 UNK         0.0811 
    123 H123       30.1606   35.4863    4.1803 H         1 UNK         0.0811 
    124 H124       31.0515   35.8587    2.7133 H         1 UNK         0.0811 
    125 H125       32.2705   32.1946    4.0372 H         1 UNK         0.3204 
    126 H126       30.4574   30.2894    5.2647 H         1 UNK         0.0748 
    127 H127       31.3613   30.5526    7.5644 H         1 UNK         0.0771 
    128 H128       32.4208   31.8622    7.0430 H         1 UNK         0.0771 
    129 H129       30.6744   32.0809    7.0640 H         1 UNK         0.0771 
    130 H130       32.4725   28.9601    6.7721 H         1 UNK         0.2980 
    131 H131       34.9430   28.9154    5.3213 H         1 UNK         0.0545 
    132 H132       33.8056   29.3274    8.2209 H         1 UNK         0.3459 
    133 H133       34.9346   28.3631    9.1273 H         1 UNK         0.3459 
    134 H134       35.0442   26.5628    4.6963 H         1 UNK         0.0616 
    135 H135       33.7805   27.3867    3.8518 H         1 UNK         0.0616 
    136 H136       31.0863   26.7348    4.1772 H         1 UNK         0.0634 
    137 H137       32.1860   25.9126    3.0914 H         1 UNK         0.0634 
@<TRIPOS>BOND
     1    1    2 1    
     2    1   72 1    
     3    1   73 1    
     4    1   74 1    
     5    2    3 2    
     6    2    4 am   BACKBONE|DICT|INTERRES
     7    4    5 1    
     8    4   75 1    
     9    5    6 1    
    10    5   35 1    
    11    5   76 1    
    12    6    7 1    
    13    6   77 1    
    14    6   78 1    
    15    7    8 1    
    16    8    9 1    
    17    8   79 1    
    18    8   80 1    
    19    9   10 ar   
    20    9   14 ar   
    21   10   11 ar   
    22   10   81 1    
    23   11   12 ar   
    24   11   71 1    
    25   12   13 ar   
    26   12   82 1    
    27   13   14 ar   
    28   13   15 1    
    29   14   83 1    
    30   15   16 1    
    31   15   84 1    
    32   15   85 1    
    33   16   17 1    
    34   17   18 1    
    35   17   86 1    
    36   17   87 1    
    37   18   19 1    
    38   18   37 1    
    39   18   88 1    
    40   19   20 am   BACKBONE|DICT|INTERRES
    41   19   89 1    
    42   20   21 2    
    43   20   22 1    
    44   22   23 1    
    45   22   24 1    
    46   22   90 1    
    47   23   91 1    
    48   23   92 1    
    49   23   93 1    
    50   24   25 am   BACKBONE|DICT|INTERRES
    51   24   94 1    
    52   25   26 2    
    53   25   27 1    
    54   27   28 1    
    55   27   29 1    
    56   27   95 1    
    57   28   96 1    
    58   28   97 1    
    59   28   98 1    
    60   29   30 am   BACKBONE|DICT|INTERRES
    61   29   99 1    
    62   30   31 2    
    63   30   32 1    
    64   32   33 1    
    65   32   34 1    
    66   32  100 1    
    67   33  101 1    
    68   33  102 1    
    69   33  103 1    
    70   34   35 am   BACKBONE|DICT|INTERRES
    71   34  104 1    
    72   35   36 2    
    73   37   38 2    
    74   37   39 am   BACKBONE|DICT|INTERRES
    75   39   40 1    
    76   39  105 1    
    77   40   41 1    
    78   40   42 1    
    79   40  106 1    
    80   41  107 1    
    81   41  108 1    
    82   41  109 1    
    83   42   43 2    
    84   42   44 am   BACKBONE|DICT|INTERRES
    85   44   45 1    
    86   44  110 1    
    87   45   46 1    
    88   45   47 1    
    89   45  111 1    
    90   46  112 1    
    91   46  113 1    
    92   46  114 1    
    93   47   48 2    
    94   47   49 am   BACKBONE|DICT|INTERRES
    95   49   50 1    
    96   49  115 1    
    97   50   51 1    
    98   50   52 1    
    99   50  116 1    
   100   51  117 1    
   101   51  118 1    
   102   51  119 1    
   103   52   53 2    
   104   52   54 am   BACKBONE|DICT|INTERRES
   105   54   55 1    
   106   54  120 1    
   107   55   56 1    
   108   55   57 1    
   109   55  121 1    
   110   56  122 1    
   111   56  123 1    
   112   56  124 1    
   113   57   58 2    
   114   57   59 am   BACKBONE|DICT|INTERRES
   115   59   60 1    
   116   59  125 1    
   117   60   61 1    
   118   60   62 1    
   119   60  126 1    
   120   61  127 1    
   121   61  128 1    
   122   61  129 1    
   123   62   63 2    
   124   62   64 am   BACKBONE|DICT|INTERRES
   125   64   65 1    
   126   64  130 1    
   127   65   66 1    
   128   65   69 1    
   129   65  131 1    
   130   66   67 am   BACKBONE|DICT|INTERRES
   131   66   68 2    
   132   67  132 1    
   133   67  133 1    
   134   69   70 1    
   135   69  134 1    
   136   69  135 1    
   137   70   71 1    
   138   71  136 1    
   139   71  137 1    
@<TRIPOS>SUBSTRUCTURE
     1 UNK         1 GROUP             0       ****    0 ROOT    
