@<TRIPOS>MOLECULE
3R136
137   139    1
SMALL
USER_CHARGES


@<TRIPOS>ATOM
      1 CA         29.3664   24.6868    5.4255 C.3       0 UNK        -0.1979 
      2 C          28.3423   24.3284    4.3600 C.2       0 UNK         0.4864 
      3 O          27.1494   24.2417    4.6570 O.2       0 UNK        -0.5359 
      4 N          28.7942   24.1212    3.1162 N.am      1 UNK        -0.4318 
      5 CA         27.9698   23.6812    1.9846 C.3       1 UNK         0.0824 
      6 C6         28.7951   22.9034    0.9251 C.3       12 UNK        -0.0944 
      7 S7         29.6940   21.4963    1.6762 S.3       12 UNK        -0.2672 
      8 C8         31.3981   21.6715    1.0455 C.3       12 UNK         0.0333 
      9 C9         31.9631   23.0781    1.2007 C.ar      12 UNK        -0.0807 
     10 C10        32.2091   23.6203    2.4675 C.ar      12 UNK        -0.0894 
     11 C11        32.7040   24.9235    2.5928 C.ar      12 UNK        -0.0804 
     12 C12        32.9600   25.6773    1.4440 C.ar      12 UNK        -0.0824 
     13 C13        32.7367   25.1384    0.1752 C.ar      12 UNK        -0.0762 
     14 C14        32.2411   23.8380    0.0604 C.ar      12 UNK        -0.0782 
     15 C15        33.0281   25.9591   -1.0728 C.3       12 UNK         0.0230 
     16 S16        31.5064   26.3840   -1.9764 S.3       12 UNK        -0.2608 
     17 C17        30.6122   27.3503   -0.7156 C.3       12 UNK        -0.0989 
     18 CA         29.3472   28.0419   -1.2881 C.3       5 UNK         0.0716 
     19 N          28.3738   27.0489   -1.7460 N.am      5 UNK        -0.4135 
     20 C          27.9862   26.8617   -3.0114 C.2       4 UNK         0.5031 
     21 O          28.3249   27.5838   -3.9507 O.2       4 UNK        -0.5229 
     22 CA         27.0910   25.6467   -3.2936 C.3       4 UNK         0.0329 
     23 CB         27.9454   24.3689   -3.3661 C.3       4 UNK        -0.2001 
     24 N          26.0529   25.4673   -2.2757 N.am      4 UNK        -0.4303 
     25 C          24.7337   25.4974   -2.5149 C.2       3 UNK         0.5044 
     26 O          24.2427   25.7372   -3.6191 O.2       3 UNK        -0.5152 
     27 CA         23.7847   25.1780   -1.3424 C.3       3 UNK         0.0319 
     28 CB         23.2784   23.7298   -1.4461 C.3       3 UNK        -0.2001 
     29 N          24.3930   25.3725   -0.0256 N.am      3 UNK        -0.4354 
     30 C          24.6459   26.5668    0.5259 C.2       2 UNK         0.4964 
     31 O          24.2993   27.6346    0.0204 O.2       2 UNK        -0.5047 
     32 CA         25.4074   26.5786    1.8657 C.3       2 UNK         0.0288 
     33 CB         24.4261   26.7925    3.0305 C.3       2 UNK        -0.2113 
     34 N          26.2251   25.3901    2.1498 N.am      2 UNK        -0.4145 
     35 C          27.1977   24.8740    1.3840 C.2       1 UNK         0.5006 
     36 O          27.4918   25.3044    0.2665 O.2       1 UNK        -0.5103 
     37 C          28.6958   28.9481   -0.2284 C.2       5 UNK         0.5055 
     38 O          27.5653   28.7037    0.1937 O.2       5 UNK        -0.5220 
     39 N          29.4425   29.9655    0.2234 N.am      6 UNK        -0.4450 
     40 CA         29.0398   30.9087    1.2758 C.3       6 UNK         0.0367 
     41 CB         29.8631   32.2001    1.1285 C.3       6 UNK        -0.1929 
     42 C          29.1257   30.3404    2.7120 C.2       6 UNK         0.5070 
     43 O          28.9702   31.1023    3.6681 O.2       6 UNK        -0.5237 
     44 N          29.3730   29.0278    2.8474 N.am      7 UNK        -0.4739 
     45 CA         29.3923   28.2376    4.0829 C.3       7 UNK         0.0276 
     46 CB         27.9541   28.0497    4.6149 C.3       7 UNK        -0.1927 
     47 C          30.3761   28.8030    5.1210 C.2       7 UNK         0.5013 
     48 O          31.5824   28.7774    4.8734 O.2       7 UNK        -0.5193 
     49 N          29.8618   29.3367    6.2367 N.am      8 UNK        -0.4253 
     50 CA         30.6411   29.9596    7.3102 C.3       8 UNK         0.0242 
     51 CB         29.6983   30.3629    8.4549 C.3       8 UNK        -0.2000 
     52 C          31.4848   31.1653    6.8575 C.2       8 UNK         0.4948 
     53 O          32.5352   31.4101    7.4491 O.2       8 UNK        -0.5275 
     54 N          31.0462   31.8743    5.8074 N.am      9 UNK        -0.4246 
     55 CA         31.8074   32.9645    5.1934 C.3       9 UNK         0.0261 
     56 CB         30.8343   33.9636    4.5485 C.3       9 UNK        -0.1959 
     57 C          32.8562   32.4702    4.1780 C.2       9 UNK         0.5033 
     58 O          33.7331   33.2541    3.8119 O.2       9 UNK        -0.5390 
     59 N          32.7653   31.2048    3.7405 N.am      10 UNK        -0.4215 
     60 CA         33.7304   30.5695    2.8424 C.3       10 UNK         0.0240 
     61 CB         33.0100   29.6044    1.8832 C.3       10 UNK        -0.1982 
     62 C          34.8244   29.8476    3.6419 C.2       10 UNK         0.4970 
     63 O          36.0056   30.1114    3.4145 O.2       10 UNK        -0.4916 
     64 N          34.4169   28.9597    4.5591 N.am      11 UNK        -0.4279 
     65 CA         35.3272   28.1807    5.4170 C.3       11 UNK         0.1003 
     66 C          35.7924   28.9228    6.7019 C.2       11 UNK         0.5709 
     67 N          35.2033   30.0478    7.0844 N.am      11 UNK        -0.7358 
     68 O          36.7282   28.4746    7.3602 O.2       11 UNK        -0.4999 
     69 C69        34.7506   26.7780    5.7470 C.3       12 UNK        -0.0954 
     70 S70        34.7423   25.6928    4.2818 S.3       12 UNK        -0.2268 
     71 C71        32.9629   25.5349    3.9601 C.3       12 UNK         0.0203 
     72 H72        28.9180   25.3189    6.1913 H         1 UNK         0.0888 
     73 H73        29.7361   23.7824    5.9078 H         1 UNK         0.0888 
     74 H74        30.2130   25.2216    5.0012 H         1 UNK         0.0888 
     75 H75        29.7811   24.2042    2.9172 H         1 UNK         0.3017 
     76 H76        27.2184   22.9844    2.3637 H         1 UNK         0.0873 
     77 H77        29.4869   23.5703    0.4105 H         1 UNK         0.0745 
     78 H78        28.1362   22.5055    0.1512 H         1 UNK         0.0745 
     79 H79        31.4103   21.3642   -0.0014 H         1 UNK         0.0705 
     80 H80        32.0423   20.9681    1.5747 H         1 UNK         0.0705 
     81 H81        32.0086   23.0285    3.3505 H         1 UNK         0.1334 
     82 H82        33.3489   26.6807    1.5429 H         1 UNK         0.1417 
     83 H83        32.0578   23.4265   -0.9232 H         1 UNK         0.1562 
     84 H84        33.6845   25.3897   -1.7324 H         1 UNK         0.0748 
     85 H85        33.5650   26.8756   -0.8229 H         1 UNK         0.0748 
     86 H86        31.3144   28.0781   -0.3060 H         1 UNK         0.0940 
     87 H87        30.3428   26.6825    0.1058 H         1 UNK         0.0940 
     88 H88        29.6444   28.6901   -2.1152 H         1 UNK         0.0703 
     89 H89        28.0096   26.4414   -1.0149 H         1 UNK         0.3081 
     90 H90        26.6406   25.8024   -4.2761 H         1 UNK         0.0719 
     91 H91        28.7366   24.4693   -4.1105 H         1 UNK         0.0809 
     92 H92        28.4235   24.1465   -2.4108 H         1 UNK         0.0809 
     93 H93        27.3425   23.5056   -3.6477 H         1 UNK         0.0809 
     94 H94        26.3735   25.3056   -1.3263 H         1 UNK         0.2990 
     95 H95        22.9245   25.8458   -1.4261 H         1 UNK         0.0690 
     96 H96        22.5503   23.5063   -0.6660 H         1 UNK         0.0788 
     97 H97        24.0934   23.0094   -1.3634 H         1 UNK         0.0788 
     98 H98        22.7866   23.5560   -2.4044 H         1 UNK         0.0788 
     99 H99        24.6873   24.5440    0.4699 H         1 UNK         0.2993 
    100 H100       26.0849   27.4323    1.8335 H         1 UNK         0.0949 
    101 H101       23.8323   27.6955    2.8814 H         1 UNK         0.0767 
    102 H102       23.7316   25.9572    3.1288 H         1 UNK         0.0767 
    103 H103       24.9496   26.9058    3.9800 H         1 UNK         0.0767 
    104 H104       26.1203   24.9844    3.0752 H         1 UNK         0.3013 
    105 H105       30.3550   30.1160   -0.1821 H         1 UNK         0.3121 
    106 H106       27.9917   31.1665    1.1084 H         1 UNK         0.0774 
    107 H107       29.4293   33.0007    1.7268 H         1 UNK         0.0815 
    108 H108       30.8957   32.0691    1.4525 H         1 UNK         0.0815 
    109 H109       29.8744   32.5536    0.0974 H         1 UNK         0.0815 
    110 H110       29.5013   28.5035    1.9957 H         1 UNK         0.2987 
    111 H111       29.7786   27.2553    3.8107 H         1 UNK         0.0949 
    112 H112       27.9362   27.4669    5.5364 H         1 UNK         0.0806 
    113 H113       27.3483   27.5078    3.8913 H         1 UNK         0.0806 
    114 H114       27.4553   28.9997    4.8105 H         1 UNK         0.0806 
    115 H115       28.8574   29.3491    6.3391 H         1 UNK         0.3010 
    116 H116       31.3358   29.2060    7.6875 H         1 UNK         0.0829 
    117 H117       28.9585   31.0957    8.1299 H         1 UNK         0.0813 
    118 H118       29.1654   29.4999    8.8545 H         1 UNK         0.0813 
    119 H119       30.2557   30.8072    9.2810 H         1 UNK         0.0813 
    120 H120       30.1843   31.6012    5.3447 H         1 UNK         0.3038 
    121 H121       32.3527   33.5004    5.9735 H         1 UNK         0.0769 
    122 H122       31.3709   34.7789    4.0614 H         1 UNK         0.0811 
    123 H123       30.1765   34.4098    5.2944 H         1 UNK         0.0811 
    124 H124       30.2083   33.4878    3.7970 H         1 UNK         0.0811 
    125 H125       32.0603   30.5970    4.1421 H         1 UNK         0.3204 
    126 H126       34.2168   31.3316    2.2294 H         1 UNK         0.0748 
    127 H127       33.7240   29.1143    1.2201 H         1 UNK         0.0771 
    128 H128       32.4645   28.8230    2.4116 H         1 UNK         0.0771 
    129 H129       32.3014   30.1364    1.2510 H         1 UNK         0.0771 
    130 H130       33.4209   28.8092    4.6992 H         1 UNK         0.2980 
    131 H131       36.2488   28.0133    4.8557 H         1 UNK         0.0545 
    132 H132       34.3962   30.4140    6.6027 H         1 UNK         0.3459 
    133 H133       35.5294   30.5082    7.9188 H         1 UNK         0.3459 
    134 H134       35.3565   26.2737    6.5021 H         1 UNK         0.0616 
    135 H135       33.7473   26.8606    6.1690 H         1 UNK         0.0616 
    136 H136       32.4946   26.5173    4.0041 H         1 UNK         0.0634 
    137 H137       32.5174   24.9317    4.7516 H         1 UNK         0.0634 
@<TRIPOS>BOND
     1    1    2 1    
     2    1   72 1    
     3    1   73 1    
     4    1   74 1    
     5    2    3 2    
     6    2    4 am   BACKBONE|DICT|INTERRES
     7    4    5 1    
     8    4   75 1    
     9    5    6 1    
    10    5   35 1    
    11    5   76 1    
    12    6    7 1    
    13    6   77 1    
    14    6   78 1    
    15    7    8 1    
    16    8    9 1    
    17    8   79 1    
    18    8   80 1    
    19    9   10 ar   
    20    9   14 ar   
    21   10   11 ar   
    22   10   81 1    
    23   11   12 ar   
    24   11   71 1    
    25   12   13 ar   
    26   12   82 1    
    27   13   14 ar   
    28   13   15 1    
    29   14   83 1    
    30   15   16 1    
    31   15   84 1    
    32   15   85 1    
    33   16   17 1    
    34   17   18 1    
    35   17   86 1    
    36   17   87 1    
    37   18   19 1    
    38   18   37 1    
    39   18   88 1    
    40   19   20 am   BACKBONE|DICT|INTERRES
    41   19   89 1    
    42   20   21 2    
    43   20   22 1    
    44   22   23 1    
    45   22   24 1    
    46   22   90 1    
    47   23   91 1    
    48   23   92 1    
    49   23   93 1    
    50   24   25 am   BACKBONE|DICT|INTERRES
    51   24   94 1    
    52   25   26 2    
    53   25   27 1    
    54   27   28 1    
    55   27   29 1    
    56   27   95 1    
    57   28   96 1    
    58   28   97 1    
    59   28   98 1    
    60   29   30 am   BACKBONE|DICT|INTERRES
    61   29   99 1    
    62   30   31 2    
    63   30   32 1    
    64   32   33 1    
    65   32   34 1    
    66   32  100 1    
    67   33  101 1    
    68   33  102 1    
    69   33  103 1    
    70   34   35 am   BACKBONE|DICT|INTERRES
    71   34  104 1    
    72   35   36 2    
    73   37   38 2    
    74   37   39 am   BACKBONE|DICT|INTERRES
    75   39   40 1    
    76   39  105 1    
    77   40   41 1    
    78   40   42 1    
    79   40  106 1    
    80   41  107 1    
    81   41  108 1    
    82   41  109 1    
    83   42   43 2    
    84   42   44 am   BACKBONE|DICT|INTERRES
    85   44   45 1    
    86   44  110 1    
    87   45   46 1    
    88   45   47 1    
    89   45  111 1    
    90   46  112 1    
    91   46  113 1    
    92   46  114 1    
    93   47   48 2    
    94   47   49 am   BACKBONE|DICT|INTERRES
    95   49   50 1    
    96   49  115 1    
    97   50   51 1    
    98   50   52 1    
    99   50  116 1    
   100   51  117 1    
   101   51  118 1    
   102   51  119 1    
   103   52   53 2    
   104   52   54 am   BACKBONE|DICT|INTERRES
   105   54   55 1    
   106   54  120 1    
   107   55   56 1    
   108   55   57 1    
   109   55  121 1    
   110   56  122 1    
   111   56  123 1    
   112   56  124 1    
   113   57   58 2    
   114   57   59 am   BACKBONE|DICT|INTERRES
   115   59   60 1    
   116   59  125 1    
   117   60   61 1    
   118   60   62 1    
   119   60  126 1    
   120   61  127 1    
   121   61  128 1    
   122   61  129 1    
   123   62   63 2    
   124   62   64 am   BACKBONE|DICT|INTERRES
   125   64   65 1    
   126   64  130 1    
   127   65   66 1    
   128   65   69 1    
   129   65  131 1    
   130   66   67 am   BACKBONE|DICT|INTERRES
   131   66   68 2    
   132   67  132 1    
   133   67  133 1    
   134   69   70 1    
   135   69  134 1    
   136   69  135 1    
   137   70   71 1    
   138   71  136 1    
   139   71  137 1    
@<TRIPOS>SUBSTRUCTURE
     1 UNK         1 GROUP             0       ****    0 ROOT    
