@<TRIPOS>MOLECULE
3R136
137   139    1
SMALL
USER_CHARGES


@<TRIPOS>ATOM
      1 CA         33.0550   24.7417    1.5648 C.3       0 UNK        -0.1979 
      2 C          32.3150   25.9059    0.9248 C.2       0 UNK         0.4864 
      3 O          32.6492   26.3086   -0.1905 O.2       0 UNK        -0.5359 
      4 N          31.3047   26.4492    1.6157 N.am      1 UNK        -0.4318 
      5 CA         30.5027   27.6089    1.2050 C.3       1 UNK         0.0824 
      6 C6         29.8340   28.2799    2.4280 C.3       12 UNK        -0.0944 
      7 S7         31.0747   29.0192    3.5355 S.3       12 UNK        -0.2672 
      8 C8         30.0515   29.4894    4.9629 C.3       12 UNK         0.0333 
      9 C9         29.5932   28.2620    5.7335 C.ar      12 UNK        -0.0807 
     10 C10        30.5208   27.5140    6.4623 C.ar      12 UNK        -0.0894 
     11 C11        30.1342   26.3443    7.1289 C.ar      12 UNK        -0.0804 
     12 C12        28.7920   25.9521    7.0777 C.ar      12 UNK        -0.0824 
     13 C13        27.8460   26.7082    6.3762 C.ar      12 UNK        -0.0762 
     14 C14        28.2545   27.8648    5.7062 C.ar      12 UNK        -0.0782 
     15 C15        26.3831   26.2836    6.3675 C.3       12 UNK         0.0230 
     16 S16        25.8590   25.6289    4.7492 S.3       12 UNK        -0.2608 
     17 C17        25.2056   27.1205    3.9197 C.3       12 UNK        -0.0989 
     18 CA         25.8464   27.3601    2.5234 C.3       5 UNK         0.0716 
     19 N          25.6483   26.2603    1.5668 N.am      5 UNK        -0.4135 
     20 C          24.4722   25.7882    1.1221 C.2       4 UNK         0.5031 
     21 O          23.3782   26.1534    1.5548 O.2       4 UNK        -0.5229 
     22 CA         24.4893   24.7606   -0.0262 C.3       4 UNK         0.0329 
     23 CB         23.7480   25.3173   -1.2549 C.3       4 UNK        -0.2001 
     24 N          25.8282   24.3523   -0.4506 N.am      4 UNK        -0.4303 
     25 C          26.6054   23.4409    0.1422 C.2       3 UNK         0.5044 
     26 O          26.2891   22.8416    1.1694 O.2       3 UNK        -0.5152 
     27 CA         27.9725   23.1499   -0.5109 C.3       3 UNK         0.0319 
     28 CB         27.8444   22.0579   -1.5905 C.3       3 UNK        -0.2001 
     29 N          28.6821   24.3333   -1.0267 N.am      3 UNK        -0.4354 
     30 C          28.3411   25.1701   -2.0214 C.2       2 UNK         0.4964 
     31 O          27.3314   25.0308   -2.7133 O.2       2 UNK        -0.5047 
     32 CA         29.2629   26.3855   -2.2560 C.3       2 UNK         0.0288 
     33 CB         28.5140   27.5827   -2.8820 C.3       2 UNK        -0.2113 
     34 N          29.9953   26.8109   -1.0550 N.am      2 UNK        -0.4145 
     35 C          29.4811   27.2363    0.1081 C.2       1 UNK         0.5006 
     36 O          28.2699   27.3140    0.3315 O.2       1 UNK        -0.5103 
     37 C          25.4051   28.6880    1.8703 C.2       5 UNK         0.5055 
     38 O          24.5537   29.3980    2.4095 O.2       5 UNK        -0.5220 
     39 N          25.9657   28.9633    0.6857 N.am      6 UNK        -0.4450 
     40 CA         25.5571   30.0412   -0.2175 C.3       6 UNK         0.0367 
     41 CB         24.7036   29.4419   -1.3523 C.3       6 UNK        -0.1929 
     42 C          26.7674   30.8328   -0.7419 C.2       6 UNK         0.5070 
     43 O          26.7335   31.3301   -1.8684 O.2       6 UNK        -0.5237 
     44 N          27.8148   30.9465    0.0802 N.am      7 UNK        -0.4739 
     45 CA         29.0411   31.6977   -0.1829 C.3       7 UNK         0.0276 
     46 CB         29.9364   30.9340   -1.1844 C.3       7 UNK        -0.1927 
     47 C          29.7447   31.9637    1.1578 C.2       7 UNK         0.5013 
     48 O          29.1487   31.7323    2.2134 O.2       7 UNK        -0.5193 
     49 N          30.9971   32.4253    1.0946 N.am      8 UNK        -0.4253 
     50 CA         31.9137   32.5283    2.2258 C.3       8 UNK         0.0242 
     51 CB         32.1213   34.0059    2.5990 C.3       8 UNK        -0.2000 
     52 C          33.2274   31.8703    1.7920 C.2       8 UNK         0.4948 
     53 O          33.7533   32.2225    0.7330 O.2       8 UNK        -0.5275 
     54 N          33.7175   30.9215    2.5932 N.am      9 UNK        -0.4246 
     55 CA         34.8936   30.0951    2.3383 C.3       9 UNK         0.0261 
     56 CB         34.6001   29.0929    1.2019 C.3       9 UNK        -0.1959 
     57 C          35.2508   29.3510    3.6316 C.2       9 UNK         0.5033 
     58 O          34.4602   29.3506    4.5799 O.2       9 UNK        -0.5390 
     59 N          36.4260   28.7121    3.6437 N.am      10 UNK        -0.4215 
     60 CA         36.8602   27.8149    4.7128 C.3       10 UNK         0.0240 
     61 CB         38.3961   27.7130    4.7017 C.3       10 UNK        -0.1982 
     62 C          36.1986   26.4403    4.5250 C.2       10 UNK         0.4970 
     63 O          36.6236   25.6777    3.6549 O.2       10 UNK        -0.4916 
     64 N          35.1597   26.1637    5.3198 N.am      11 UNK        -0.4279 
     65 CA         34.4181   24.8920    5.3188 C.3       11 UNK         0.1003 
     66 C          35.1494   23.6959    5.9981 C.2       11 UNK         0.5709 
     67 N          36.2655   23.9004    6.6883 N.am      11 UNK        -0.7358 
     68 O          34.7027   22.5572    5.8807 O.2       11 UNK        -0.4999 
     69 C69        32.9697   25.0785    5.8429 C.3       12 UNK        -0.0954 
     70 S70        32.8866   25.7330    7.5459 S.3       12 UNK        -0.2268 
     71 C71        31.1176   25.4900    7.9339 C.3       12 UNK         0.0203 
     72 H72        33.0819   23.8927    0.8823 H         1 UNK         0.0888 
     73 H73        34.0815   25.0314    1.7895 H         1 UNK         0.0888 
     74 H74        32.5794   24.4167    2.4899 H         1 UNK         0.0888 
     75 H75        31.0741   26.0757    2.5251 H         1 UNK         0.3017 
     76 H76        31.1762   28.3432    0.7575 H         1 UNK         0.0873 
     77 H77        29.1477   29.0694    2.1206 H         1 UNK         0.0745 
     78 H78        29.2438   27.5512    2.9848 H         1 UNK         0.0745 
     79 H79        30.6373   30.1321    5.6216 H         1 UNK         0.0705 
     80 H80        29.2039   30.0861    4.6215 H         1 UNK         0.0705 
     81 H81        31.5490   27.8465    6.4833 H         1 UNK         0.1334 
     82 H82        28.4800   25.0564    7.5979 H         1 UNK         0.1417 
     83 H83        27.5351   28.4532    5.1559 H         1 UNK         0.1562 
     84 H84        25.7492   27.1192    6.6673 H         1 UNK         0.0748 
     85 H85        26.2152   25.5060    7.1143 H         1 UNK         0.0748 
     86 H86        25.3656   27.9906    4.5570 H         1 UNK         0.0940 
     87 H87        24.1221   27.0211    3.8435 H         1 UNK         0.0940 
     88 H88        26.9220   27.4431    2.6752 H         1 UNK         0.0703 
     89 H89        26.4896   25.9252    1.1186 H         1 UNK         0.3081 
     90 H90        23.9528   23.8770    0.3258 H         1 UNK         0.0719 
     91 H91        22.7220   25.5926   -1.0067 H         1 UNK         0.0809 
     92 H92        24.2385   26.2077   -1.6506 H         1 UNK         0.0809 
     93 H93        23.6971   24.5792   -2.0556 H         1 UNK         0.0809 
     94 H94        26.1837   24.7620   -1.3121 H         1 UNK         0.2990 
     95 H95        28.6104   22.7510    0.2796 H         1 UNK         0.0690 
     96 H96        28.8179   21.7914   -2.0021 H         1 UNK         0.0788 
     97 H97        27.2054   22.3713   -2.4166 H         1 UNK         0.0788 
     98 H98        27.4093   21.1486   -1.1735 H         1 UNK         0.0788 
     99 H99        29.5236   24.5675   -0.5200 H         1 UNK         0.2993 
    100 H100       30.0153   26.0538   -2.9731 H         1 UNK         0.0949 
    101 H101       27.7113   27.9429   -2.2380 H         1 UNK         0.0767 
    102 H102       29.1903   28.4159   -3.0713 H         1 UNK         0.0767 
    103 H103       28.0657   27.3112   -3.8385 H         1 UNK         0.0767 
    104 H104       31.0090   26.7199   -1.0933 H         1 UNK         0.3013 
    105 H105       26.7171   28.3577    0.3576 H         1 UNK         0.3121 
    106 H106       24.9417   30.7650    0.3207 H         1 UNK         0.0774 
    107 H107       24.3236   30.2208   -2.0144 H         1 UNK         0.0815 
    108 H108       25.2796   28.7448   -1.9618 H         1 UNK         0.0815 
    109 H109       23.8399   28.9066   -0.9573 H         1 UNK         0.0815 
    110 H110       27.7440   30.5910    1.0260 H         1 UNK         0.2987 
    111 H111       28.7718   32.6676   -0.6068 H         1 UNK         0.0949 
    112 H112       29.4028   30.7122   -2.1082 H         1 UNK         0.0806 
    113 H113       30.8131   31.5173   -1.4666 H         1 UNK         0.0806 
    114 H114       30.2893   29.9904   -0.7720 H         1 UNK         0.0806 
    115 H115       31.4309   32.5574    0.1903 H         1 UNK         0.3010 
    116 H116       31.5160   31.9976    3.0937 H         1 UNK         0.0829 
    117 H117       32.5294   34.5808    1.7666 H         1 UNK         0.0813 
    118 H118       31.1825   34.4718    2.8990 H         1 UNK         0.0813 
    119 H119       32.8146   34.1024    3.4354 H         1 UNK         0.0813 
    120 H120       33.2439   30.6808    3.4578 H         1 UNK         0.3038 
    121 H121       35.7304   30.7405    2.0637 H         1 UNK         0.0769 
    122 H122       34.3768   29.5994    0.2631 H         1 UNK         0.0811 
    123 H123       33.7478   28.4594    1.4473 H         1 UNK         0.0811 
    124 H124       35.4504   28.4370    1.0129 H         1 UNK         0.0811 
    125 H125       37.0042   28.7371    2.8158 H         1 UNK         0.3204 
    126 H126       36.5605   28.2279    5.6789 H         1 UNK         0.0748 
    127 H127       38.7746   27.3345    3.7511 H         1 UNK         0.0771 
    128 H128       38.8577   28.6842    4.8818 H         1 UNK         0.0771 
    129 H129       38.7469   27.0383    5.4837 H         1 UNK         0.0771 
    130 H130       34.8477   26.8533    5.9887 H         1 UNK         0.2980 
    131 H131       34.3225   24.5901    4.2751 H         1 UNK         0.0545 
    132 H132       36.7312   23.1161    7.1167 H         1 UNK         0.3459 
    133 H133       36.6370   24.8298    6.7969 H         1 UNK         0.3459 
    134 H134       32.4183   24.1377    5.7943 H         1 UNK         0.0616 
    135 H135       32.4359   25.7679    5.1870 H         1 UNK         0.0616 
    136 H136       30.9705   25.7085    8.9922 H         1 UNK         0.0634 
    137 H137       30.8812   24.4329    7.8017 H         1 UNK         0.0634 
@<TRIPOS>BOND
     1    1    2 1    
     2    1   72 1    
     3    1   73 1    
     4    1   74 1    
     5    2    3 2    
     6    2    4 am   BACKBONE|DICT|INTERRES
     7    4    5 1    
     8    4   75 1    
     9    5    6 1    
    10    5   35 1    
    11    5   76 1    
    12    6    7 1    
    13    6   77 1    
    14    6   78 1    
    15    7    8 1    
    16    8    9 1    
    17    8   79 1    
    18    8   80 1    
    19    9   10 ar   
    20    9   14 ar   
    21   10   11 ar   
    22   10   81 1    
    23   11   12 ar   
    24   11   71 1    
    25   12   13 ar   
    26   12   82 1    
    27   13   14 ar   
    28   13   15 1    
    29   14   83 1    
    30   15   16 1    
    31   15   84 1    
    32   15   85 1    
    33   16   17 1    
    34   17   18 1    
    35   17   86 1    
    36   17   87 1    
    37   18   19 1    
    38   18   37 1    
    39   18   88 1    
    40   19   20 am   BACKBONE|DICT|INTERRES
    41   19   89 1    
    42   20   21 2    
    43   20   22 1    
    44   22   23 1    
    45   22   24 1    
    46   22   90 1    
    47   23   91 1    
    48   23   92 1    
    49   23   93 1    
    50   24   25 am   BACKBONE|DICT|INTERRES
    51   24   94 1    
    52   25   26 2    
    53   25   27 1    
    54   27   28 1    
    55   27   29 1    
    56   27   95 1    
    57   28   96 1    
    58   28   97 1    
    59   28   98 1    
    60   29   30 am   BACKBONE|DICT|INTERRES
    61   29   99 1    
    62   30   31 2    
    63   30   32 1    
    64   32   33 1    
    65   32   34 1    
    66   32  100 1    
    67   33  101 1    
    68   33  102 1    
    69   33  103 1    
    70   34   35 am   BACKBONE|DICT|INTERRES
    71   34  104 1    
    72   35   36 2    
    73   37   38 2    
    74   37   39 am   BACKBONE|DICT|INTERRES
    75   39   40 1    
    76   39  105 1    
    77   40   41 1    
    78   40   42 1    
    79   40  106 1    
    80   41  107 1    
    81   41  108 1    
    82   41  109 1    
    83   42   43 2    
    84   42   44 am   BACKBONE|DICT|INTERRES
    85   44   45 1    
    86   44  110 1    
    87   45   46 1    
    88   45   47 1    
    89   45  111 1    
    90   46  112 1    
    91   46  113 1    
    92   46  114 1    
    93   47   48 2    
    94   47   49 am   BACKBONE|DICT|INTERRES
    95   49   50 1    
    96   49  115 1    
    97   50   51 1    
    98   50   52 1    
    99   50  116 1    
   100   51  117 1    
   101   51  118 1    
   102   51  119 1    
   103   52   53 2    
   104   52   54 am   BACKBONE|DICT|INTERRES
   105   54   55 1    
   106   54  120 1    
   107   55   56 1    
   108   55   57 1    
   109   55  121 1    
   110   56  122 1    
   111   56  123 1    
   112   56  124 1    
   113   57   58 2    
   114   57   59 am   BACKBONE|DICT|INTERRES
   115   59   60 1    
   116   59  125 1    
   117   60   61 1    
   118   60   62 1    
   119   60  126 1    
   120   61  127 1    
   121   61  128 1    
   122   61  129 1    
   123   62   63 2    
   124   62   64 am   BACKBONE|DICT|INTERRES
   125   64   65 1    
   126   64  130 1    
   127   65   66 1    
   128   65   69 1    
   129   65  131 1    
   130   66   67 am   BACKBONE|DICT|INTERRES
   131   66   68 2    
   132   67  132 1    
   133   67  133 1    
   134   69   70 1    
   135   69  134 1    
   136   69  135 1    
   137   70   71 1    
   138   71  136 1    
   139   71  137 1    
@<TRIPOS>SUBSTRUCTURE
     1 UNK         1 GROUP             0       ****    0 ROOT    
