@<TRIPOS>MOLECULE
3R136
137   139    1
SMALL
USER_CHARGES


@<TRIPOS>ATOM
      1 CA         27.8837   17.1306    0.4794 C.3       0 UNK        -0.1979 
      2 C          27.5585   18.6117    0.3569 C.2       0 UNK         0.4864 
      3 O          26.8204   19.0053   -0.5489 O.2       0 UNK        -0.5359 
      4 N          28.0988   19.4395    1.2609 N.am      1 UNK        -0.4318 
      5 CA         27.8968   20.8914    1.3056 C.3       1 UNK         0.0824 
      6 C6         29.0389   21.6165    2.0635 C.3       12 UNK        -0.0944 
      7 S7         30.6318   21.4601    1.1892 S.3       12 UNK        -0.2672 
      8 C8         30.6418   23.0027    0.2136 C.3       12 UNK         0.0333 
      9 C9         31.4732   24.1222    0.8362 C.ar      12 UNK        -0.0807 
     10 C10        31.3904   24.4325    2.2006 C.ar      12 UNK        -0.0894 
     11 C11        32.1759   25.4524    2.7475 C.ar      12 UNK        -0.0804 
     12 C12        33.0312   26.1819    1.9171 C.ar      12 UNK        -0.0824 
     13 C13        33.1068   25.8985    0.5515 C.ar      12 UNK        -0.0762 
     14 C14        32.3303   24.8663    0.0190 C.ar      12 UNK        -0.0782 
     15 C15        34.0502   26.6916   -0.3385 C.3       12 UNK         0.0230 
     16 S16        33.3468   28.3035   -0.8005 S.3       12 UNK        -0.2608 
     17 C17        32.1208   27.8587   -2.0833 C.3       12 UNK        -0.0989 
     18 CA         30.6675   28.2917   -1.7585 C.3       5 UNK         0.0716 
     19 N          30.1287   27.5863   -0.5877 N.am      5 UNK        -0.4135 
     20 C          28.8235   27.4848   -0.2993 C.2       4 UNK         0.5031 
     21 O          27.9290   27.9717   -0.9958 O.2       4 UNK        -0.5229 
     22 CA         28.4681   26.7497    1.0042 C.3       4 UNK         0.0329 
     23 CB         28.7464   27.6423    2.2222 C.3       4 UNK        -0.2001 
     24 N          27.0588   26.3555    1.0355 N.am      4 UNK        -0.4303 
     25 C          26.5626   25.2619    0.4503 C.2       3 UNK         0.5044 
     26 O          27.2459   24.4202   -0.1405 O.2       3 UNK        -0.5152 
     27 CA         25.0435   25.0688    0.5430 C.3       3 UNK         0.0319 
     28 CB         24.3243   25.7268   -0.6461 C.3       3 UNK        -0.2001 
     29 N          24.7967   23.6339    0.5344 N.am      3 UNK        -0.4354 
     30 C          23.9313   22.9697    1.3081 C.2       2 UNK         0.4964 
     31 O          23.0697   23.5102    2.0023 O.2       2 UNK        -0.5047 
     32 CA         24.0821   21.4358    1.3376 C.3       2 UNK         0.0288 
     33 CB         23.1371   20.7775    0.3196 C.3       2 UNK        -0.2113 
     34 N          25.4593   20.9997    1.0749 N.am      2 UNK        -0.4145 
     35 C          26.5067   21.2374    1.8779 C.2       1 UNK         0.5006 
     36 O          26.4024   21.7155    3.0096 O.2       1 UNK        -0.5103 
     37 C          30.5366   29.8317   -1.6697 C.2       5 UNK         0.5055 
     38 O          30.5896   30.5000   -2.7040 O.2       5 UNK        -0.5220 
     39 N          30.3787   30.3656   -0.4533 N.am      6 UNK        -0.4450 
     40 CA         30.2171   31.7815   -0.1433 C.3       6 UNK         0.0367 
     41 CB         31.5982   32.4167    0.1001 C.3       6 UNK        -0.1929 
     42 C          29.3257   31.9000    1.0977 C.2       6 UNK         0.5070 
     43 O          29.0574   30.8929    1.7584 O.2       6 UNK        -0.5237 
     44 N          28.8933   33.1274    1.4086 N.am      7 UNK        -0.4739 
     45 CA         28.0322   33.4627    2.5470 C.3       7 UNK         0.0276 
     46 CB         27.4416   34.8675    2.3236 C.3       7 UNK        -0.1927 
     47 C          28.7670   33.3459    3.8978 C.2       7 UNK         0.5013 
     48 O          29.1024   34.3624    4.5076 O.2       7 UNK        -0.5193 
     49 N          29.0391   32.1024    4.3162 N.am      8 UNK        -0.4253 
     50 CA         29.6536   31.6455    5.5737 C.3       8 UNK         0.0242 
     51 CB         28.8058   32.0643    6.7899 C.3       8 UNK        -0.2000 
     52 C          31.1300   32.0310    5.7834 C.2       8 UNK         0.4948 
     53 O          31.8335   31.3051    6.4859 O.2       8 UNK        -0.5275 
     54 N          31.5958   33.1251    5.1675 N.am      9 UNK        -0.4246 
     55 CA         32.9592   33.6613    5.2671 C.3       9 UNK         0.0261 
     56 CB         33.0505   34.9532    4.4390 C.3       9 UNK        -0.1959 
     57 C          34.0707   32.6787    4.8517 C.2       9 UNK         0.5033 
     58 O          35.1755   32.7560    5.3905 O.2       9 UNK        -0.5390 
     59 N          33.7566   31.7670    3.9219 N.am      10 UNK        -0.4215 
     60 CA         34.6406   30.6827    3.4890 C.3       10 UNK         0.0240 
     61 CB         34.2090   30.2146    2.0900 C.3       10 UNK        -0.1982 
     62 C          34.6675   29.4870    4.4598 C.2       10 UNK         0.4970 
     63 O          35.5887   28.6747    4.3663 O.2       10 UNK        -0.4916 
     64 N          33.6638   29.3761    5.3387 N.am      11 UNK        -0.4279 
     65 CA         33.4816   28.2554    6.2725 C.3       11 UNK         0.1003 
     66 C          33.9072   28.6208    7.7177 C.2       11 UNK         0.5709 
     67 N          33.6969   29.8527    8.1658 N.am      11 UNK        -0.7358 
     68 O          34.4433   27.7804    8.4360 O.2       11 UNK        -0.4999 
     69 C69        32.0259   27.7122    6.2548 C.3       12 UNK        -0.0954 
     70 S70        31.4017   27.3751    4.5748 S.3       12 UNK        -0.2268 
     71 C71        32.1397   25.7489    4.2396 C.3       12 UNK         0.0203 
     72 H72        28.3676   16.7770   -0.4307 H         1 UNK         0.0888 
     73 H73        28.5492   16.9273    1.3182 H         1 UNK         0.0888 
     74 H74        26.9690   16.5566    0.6248 H         1 UNK         0.0888 
     75 H75        28.6904   19.0617    1.9874 H         1 UNK         0.3017 
     76 H76        27.9068   21.2693    0.2801 H         1 UNK         0.0873 
     77 H77        28.8068   22.6764    2.1875 H         1 UNK         0.0745 
     78 H78        29.1530   21.2126    3.0711 H         1 UNK         0.0745 
     79 H79        31.0303   22.7549   -0.7754 H         1 UNK         0.0705 
     80 H80        29.6245   23.3573    0.0523 H         1 UNK         0.0705 
     81 H81        30.7316   23.8672    2.8439 H         1 UNK         0.1334 
     82 H82        33.6407   26.9710    2.3376 H         1 UNK         0.1417 
     83 H83        32.3995   24.6373   -1.0359 H         1 UNK         0.1562 
     84 H84        34.3097   26.1296   -1.2371 H         1 UNK         0.0748 
     85 H85        34.9885   26.8610    0.1921 H         1 UNK         0.0748 
     86 H86        32.1489   26.7841   -2.2653 H         1 UNK         0.0940 
     87 H87        32.4424   28.3126   -3.0228 H         1 UNK         0.0940 
     88 H88        30.0553   27.9925   -2.6124 H         1 UNK         0.0703 
     89 H89        30.8114   27.1749    0.0342 H         1 UNK         0.3081 
     90 H90        29.0923   25.8570    1.0749 H         1 UNK         0.0719 
     91 H91        29.7668   28.0262    2.2102 H         1 UNK         0.0809 
     92 H92        28.6215   27.0883    3.1526 H         1 UNK         0.0809 
     93 H93        28.0767   28.5020    2.2538 H         1 UNK         0.0809 
     94 H94        26.4194   27.0160    1.4529 H         1 UNK         0.2990 
     95 H95        24.6875   25.5057    1.4788 H         1 UNK         0.0690 
     96 H96        23.2461   25.5773   -0.5874 H         1 UNK         0.0788 
     97 H97        24.6677   25.3211   -1.5987 H         1 UNK         0.0788 
     98 H98        24.5040   26.8025   -0.6650 H         1 UNK         0.0788 
     99 H99        25.4981   23.1075    0.0292 H         1 UNK         0.2993 
    100 H100       23.8047   21.0973    2.3383 H         1 UNK         0.0949 
    101 H101       23.1869   19.6899    0.3782 H         1 UNK         0.0767 
    102 H102       22.1013   21.0645    0.5068 H         1 UNK         0.0767 
    103 H103       23.3777   21.0703   -0.7033 H         1 UNK         0.0767 
    104 H104       25.6382   20.5108    0.2031 H         1 UNK         0.3013 
    105 H105       30.2555   29.7549    0.3439 H         1 UNK         0.3121 
    106 H106       29.7164   32.2848   -0.9732 H         1 UNK         0.0774 
    107 H107       32.0865   31.9873    0.9743 H         1 UNK         0.0815 
    108 H108       32.2584   32.2727   -0.7555 H         1 UNK         0.0815 
    109 H109       31.5167   33.4912    0.2666 H         1 UNK         0.0815 
    110 H110       29.1846   33.9018    0.8288 H         1 UNK         0.2987 
    111 H111       27.1999   32.7552    2.5699 H         1 UNK         0.0949 
    112 H112       28.2197   35.6287    2.2525 H         1 UNK         0.0806 
    113 H113       26.8475   34.9082    1.4105 H         1 UNK         0.0806 
    114 H114       26.7845   35.1500    3.1475 H         1 UNK         0.0806 
    115 H115       28.8364   31.3653    3.6451 H         1 UNK         0.3010 
    116 H116       29.6358   30.5553    5.5230 H         1 UNK         0.0829 
    117 H117       27.7777   31.7146    6.6961 H         1 UNK         0.0813 
    118 H118       29.2092   31.6394    7.7102 H         1 UNK         0.0813 
    119 H119       28.7824   33.1471    6.9173 H         1 UNK         0.0813 
    120 H120       30.9090   33.6983    4.6863 H         1 UNK         0.3038 
    121 H121       33.1291   33.9134    6.3159 H         1 UNK         0.0769 
    122 H122       32.8521   34.7700    3.3821 H         1 UNK         0.0811 
    123 H123       34.0448   35.3961    4.5130 H         1 UNK         0.0811 
    124 H124       32.3381   35.7005    4.7893 H         1 UNK         0.0811 
    125 H125       32.8250   31.7843    3.5347 H         1 UNK         0.3204 
    126 H126       35.6603   31.0674    3.4181 H         1 UNK         0.0748 
    127 H127       34.2790   31.0216    1.3609 H         1 UNK         0.0771 
    128 H128       34.8519   29.4087    1.7329 H         1 UNK         0.0771 
    129 H129       33.1851   29.8378    2.0839 H         1 UNK         0.0771 
    130 H130       32.9817   30.1203    5.4231 H         1 UNK         0.2980 
    131 H131       34.1282   27.4312    5.9671 H         1 UNK         0.0545 
    132 H132       33.9780   30.0967    9.1016 H         1 UNK         0.3459 
    133 H133       33.1736   30.5143    7.6004 H         1 UNK         0.3459 
    134 H134       31.9470   26.8007    6.8502 H         1 UNK         0.0616 
    135 H135       31.3466   28.4349    6.7110 H         1 UNK         0.0616 
    136 H136       31.5797   24.9845    4.7802 H         1 UNK         0.0634 
    137 H137       33.1593   25.7190    4.6253 H         1 UNK         0.0634 
@<TRIPOS>BOND
     1    1    2 1    
     2    1   72 1    
     3    1   73 1    
     4    1   74 1    
     5    2    3 2    
     6    2    4 am   BACKBONE|DICT|INTERRES
     7    4    5 1    
     8    4   75 1    
     9    5    6 1    
    10    5   35 1    
    11    5   76 1    
    12    6    7 1    
    13    6   77 1    
    14    6   78 1    
    15    7    8 1    
    16    8    9 1    
    17    8   79 1    
    18    8   80 1    
    19    9   10 ar   
    20    9   14 ar   
    21   10   11 ar   
    22   10   81 1    
    23   11   12 ar   
    24   11   71 1    
    25   12   13 ar   
    26   12   82 1    
    27   13   14 ar   
    28   13   15 1    
    29   14   83 1    
    30   15   16 1    
    31   15   84 1    
    32   15   85 1    
    33   16   17 1    
    34   17   18 1    
    35   17   86 1    
    36   17   87 1    
    37   18   19 1    
    38   18   37 1    
    39   18   88 1    
    40   19   20 am   BACKBONE|DICT|INTERRES
    41   19   89 1    
    42   20   21 2    
    43   20   22 1    
    44   22   23 1    
    45   22   24 1    
    46   22   90 1    
    47   23   91 1    
    48   23   92 1    
    49   23   93 1    
    50   24   25 am   BACKBONE|DICT|INTERRES
    51   24   94 1    
    52   25   26 2    
    53   25   27 1    
    54   27   28 1    
    55   27   29 1    
    56   27   95 1    
    57   28   96 1    
    58   28   97 1    
    59   28   98 1    
    60   29   30 am   BACKBONE|DICT|INTERRES
    61   29   99 1    
    62   30   31 2    
    63   30   32 1    
    64   32   33 1    
    65   32   34 1    
    66   32  100 1    
    67   33  101 1    
    68   33  102 1    
    69   33  103 1    
    70   34   35 am   BACKBONE|DICT|INTERRES
    71   34  104 1    
    72   35   36 2    
    73   37   38 2    
    74   37   39 am   BACKBONE|DICT|INTERRES
    75   39   40 1    
    76   39  105 1    
    77   40   41 1    
    78   40   42 1    
    79   40  106 1    
    80   41  107 1    
    81   41  108 1    
    82   41  109 1    
    83   42   43 2    
    84   42   44 am   BACKBONE|DICT|INTERRES
    85   44   45 1    
    86   44  110 1    
    87   45   46 1    
    88   45   47 1    
    89   45  111 1    
    90   46  112 1    
    91   46  113 1    
    92   46  114 1    
    93   47   48 2    
    94   47   49 am   BACKBONE|DICT|INTERRES
    95   49   50 1    
    96   49  115 1    
    97   50   51 1    
    98   50   52 1    
    99   50  116 1    
   100   51  117 1    
   101   51  118 1    
   102   51  119 1    
   103   52   53 2    
   104   52   54 am   BACKBONE|DICT|INTERRES
   105   54   55 1    
   106   54  120 1    
   107   55   56 1    
   108   55   57 1    
   109   55  121 1    
   110   56  122 1    
   111   56  123 1    
   112   56  124 1    
   113   57   58 2    
   114   57   59 am   BACKBONE|DICT|INTERRES
   115   59   60 1    
   116   59  125 1    
   117   60   61 1    
   118   60   62 1    
   119   60  126 1    
   120   61  127 1    
   121   61  128 1    
   122   61  129 1    
   123   62   63 2    
   124   62   64 am   BACKBONE|DICT|INTERRES
   125   64   65 1    
   126   64  130 1    
   127   65   66 1    
   128   65   69 1    
   129   65  131 1    
   130   66   67 am   BACKBONE|DICT|INTERRES
   131   66   68 2    
   132   67  132 1    
   133   67  133 1    
   134   69   70 1    
   135   69  134 1    
   136   69  135 1    
   137   70   71 1    
   138   71  136 1    
   139   71  137 1    
@<TRIPOS>SUBSTRUCTURE
     1 UNK         1 GROUP             0       ****    0 ROOT    
