@<TRIPOS>MOLECULE
3R136
137   139    1
SMALL
USER_CHARGES


@<TRIPOS>ATOM
      1 CA         31.9767   24.5963   -3.1124 C.3       0 UNK        -0.1979 
      2 C          31.4942   23.3397   -2.3910 C.2       0 UNK         0.4864 
      3 O          31.8941   22.2383   -2.7656 O.2       0 UNK        -0.5359 
      4 N          30.6552   23.4452   -1.3519 N.am      1 UNK        -0.4318 
      5 CA         30.0176   24.6649   -0.8474 C.3       1 UNK         0.0824 
      6 C6         29.6464   24.5471    0.6533 C.3       12 UNK        -0.0944 
      7 S7         28.7782   23.0149    1.1573 S.3       12 UNK        -0.2672 
      8 C8         30.1190   21.9834    1.8505 C.3       12 UNK         0.0333 
      9 C9         30.7710   22.6186    3.0711 C.ar      12 UNK        -0.0807 
     10 C10        31.9749   23.3135    2.9354 C.ar      12 UNK        -0.0894 
     11 C11        32.5432   23.9762    4.0250 C.ar      12 UNK        -0.0804 
     12 C12        31.9218   23.9016    5.2754 C.ar      12 UNK        -0.0824 
     13 C13        30.7388   23.1706    5.4367 C.ar      12 UNK        -0.0762 
     14 C14        30.1704   22.5275    4.3300 C.ar      12 UNK        -0.0782 
     15 C15        30.0730   23.0816    6.8050 C.3       12 UNK         0.0230 
     16 S16        28.3612   23.7102    6.7984 S.3       12 UNK        -0.2608 
     17 C17        28.6026   25.4724    6.3825 C.3       12 UNK        -0.0989 
     18 CA         28.4482   25.7595    4.8627 C.3       5 UNK         0.0716 
     19 N          27.1900   25.2682    4.2949 N.am      5 UNK        -0.4135 
     20 C          25.9534   25.7313    4.5201 C.2       4 UNK         0.5031 
     21 O          25.6762   26.6382    5.3078 O.2       4 UNK        -0.5229 
     22 CA         24.8382   25.0718    3.6803 C.3       4 UNK         0.0329 
     23 CB         23.5266   24.9538    4.4776 C.3       4 UNK        -0.2001 
     24 N          24.5615   25.7563    2.4082 N.am      4 UNK        -0.4303 
     25 C          25.4621   26.1104    1.4805 C.2       3 UNK         0.5044 
     26 O          26.6783   25.9516    1.6055 O.2       3 UNK        -0.5152 
     27 CA         24.9285   26.7265    0.1797 C.3       3 UNK         0.0319 
     28 CB         24.1442   28.0314    0.4109 C.3       3 UNK        -0.2001 
     29 N          26.0866   26.9783   -0.6697 N.am      3 UNK        -0.4354 
     30 C          26.1355   26.9320   -2.0019 C.2       2 UNK         0.4964 
     31 O          25.1481   26.8079   -2.7271 O.2       2 UNK        -0.5047 
     32 CA         27.5366   27.0207   -2.6264 C.3       2 UNK         0.0288 
     33 CB         27.9202   28.4882   -2.8797 C.3       2 UNK        -0.2113 
     34 N          28.5616   26.4002   -1.7805 N.am      2 UNK        -0.4145 
     35 C          28.8325   25.0888   -1.7433 C.2       1 UNK         0.5006 
     36 O          28.2239   24.2459   -2.4082 O.2       1 UNK        -0.5103 
     37 C          28.7243   27.2341    4.4933 C.2       5 UNK         0.5055 
     38 O          29.1678   28.0039    5.3470 O.2       5 UNK        -0.5220 
     39 N          28.4668   27.6040    3.2311 N.am      6 UNK        -0.4450 
     40 CA         28.7475   28.9276    2.6807 C.3       6 UNK         0.0367 
     41 CB         27.4420   29.7269    2.5715 C.3       6 UNK        -0.1929 
     42 C          29.4141   28.7856    1.3093 C.2       6 UNK         0.5070 
     43 O          29.0592   27.8888    0.5420 O.2       6 UNK        -0.5237 
     44 N          30.3492   29.6904    1.0156 N.am      7 UNK        -0.4739 
     45 CA         31.1269   29.7546   -0.2195 C.3       7 UNK         0.0276 
     46 CB         32.0900   28.5489   -0.3339 C.3       7 UNK        -0.1927 
     47 C          31.8279   31.1179   -0.2217 C.2       7 UNK         0.5013 
     48 O          31.1661   32.1320   -0.4476 O.2       7 UNK        -0.5193 
     49 N          33.1314   31.1355    0.0891 N.am      8 UNK        -0.4253 
     50 CA         33.8887   32.3380    0.4368 C.3       8 UNK         0.0242 
     51 CB         35.3937   32.0438    0.3022 C.3       8 UNK        -0.2000 
     52 C          33.5064   32.7497    1.8674 C.2       8 UNK         0.4948 
     53 O          34.0944   32.2382    2.8233 O.2       8 UNK        -0.5275 
     54 N          32.4583   33.5791    1.9809 N.am      9 UNK        -0.4246 
     55 CA         31.7124   33.8777    3.2102 C.3       9 UNK         0.0261 
     56 CB         32.5776   34.6841    4.2063 C.3       9 UNK        -0.1959 
     57 C          31.1081   32.5816    3.7885 C.2       9 UNK         0.5033 
     58 O          30.6134   31.7562    3.0150 O.2       9 UNK        -0.5390 
     59 N          31.2036   32.3736    5.1078 N.am      10 UNK        -0.4215 
     60 CA         30.8104   31.1412    5.8031 C.3       10 UNK         0.0240 
     61 CB         30.5562   31.4663    7.2873 C.3       10 UNK        -0.1982 
     62 C          31.8355   29.9991    5.6090 C.2       10 UNK         0.4970 
     63 O          32.2417   29.3650    6.5845 O.2       10 UNK        -0.4916 
     64 N          32.2439   29.7803    4.3525 N.am      11 UNK        -0.4279 
     65 CA         33.2361   28.7996    3.8980 C.3       11 UNK         0.1003 
     66 C          34.6332   28.9954    4.5591 C.2       11 UNK         0.5709 
     67 N          35.1992   30.1928    4.4726 N.am      11 UNK        -0.7358 
     68 O          35.2060   28.0841    5.1527 O.2       11 UNK        -0.4999 
     69 C69        32.6769   27.3509    3.9502 C.3       12 UNK        -0.0954 
     70 S70        33.5337   26.2412    2.7853 S.3       12 UNK        -0.2268 
     71 C71        33.8221   24.7778    3.8303 C.3       12 UNK         0.0203 
     72 H72        31.1426   25.1480   -3.5443 H         1 UNK         0.0888 
     73 H73        32.5213   25.2508   -2.4324 H         1 UNK         0.0888 
     74 H74        32.6522   24.3325   -3.9260 H         1 UNK         0.0888 
     75 H75        30.3152   22.5977   -0.9219 H         1 UNK         0.3017 
     76 H76        30.7506   25.4695   -0.9103 H         1 UNK         0.0873 
     77 H77        29.0297   25.3881    0.9596 H         1 UNK         0.0745 
     78 H78        30.5522   24.6656    1.2416 H         1 UNK         0.0745 
     79 H79        29.7071   21.0109    2.1240 H         1 UNK         0.0705 
     80 H80        30.8642   21.7888    1.0780 H         1 UNK         0.0705 
     81 H81        32.4523   23.3789    1.9669 H         1 UNK         0.1334 
     82 H82        32.3600   24.4128    6.1219 H         1 UNK         0.1417 
     83 H83        29.2444   21.9803    4.4445 H         1 UNK         0.1562 
     84 H84        30.6474   23.6237    7.5579 H         1 UNK         0.0748 
     85 H85        30.0617   22.0380    7.1222 H         1 UNK         0.0748 
     86 H86        29.5875   25.7855    6.7345 H         1 UNK         0.0940 
     87 H87        27.8793   26.0583    6.9525 H         1 UNK         0.0940 
     88 H88        29.2296   25.2050    4.3438 H         1 UNK         0.0703 
     89 H89        27.2967   24.5775    3.5648 H         1 UNK         0.3081 
     90 H90        25.1626   24.0583    3.4353 H         1 UNK         0.0719 
     91 H91        23.0959   25.9323    4.6941 H         1 UNK         0.0809 
     92 H92        22.7817   24.3707    3.9359 H         1 UNK         0.0809 
     93 H93        23.6947   24.4539    5.4326 H         1 UNK         0.0809 
     94 H94        23.5887   25.9452    2.2160 H         1 UNK         0.2990 
     95 H95        24.2820   25.9881   -0.2989 H         1 UNK         0.0690 
     96 H96        23.8142   28.4637   -0.5339 H         1 UNK         0.0788 
     97 H97        24.7421   28.7816    0.9260 H         1 UNK         0.0788 
     98 H98        23.2507   27.8570    1.0108 H         1 UNK         0.0788 
     99 H99        26.9603   27.0167   -0.1534 H         1 UNK         0.2993 
    100 H100       27.5070   26.5020   -3.5873 H         1 UNK         0.0949 
    101 H101       27.1879   28.9777   -3.5232 H         1 UNK         0.0767 
    102 H102       27.9720   29.0579   -1.9505 H         1 UNK         0.0767 
    103 H103       28.8890   28.5648   -3.3739 H         1 UNK         0.0767 
    104 H104       29.0111   27.0115   -1.1008 H         1 UNK         0.3013 
    105 H105       28.0794   26.9305    2.5730 H         1 UNK         0.3121 
    106 H106       29.4342   29.4623    3.3375 H         1 UNK         0.0774 
    107 H107       27.6321   30.7338    2.1972 H         1 UNK         0.0815 
    108 H108       26.7421   29.2476    1.8889 H         1 UNK         0.0815 
    109 H109       26.9546   29.8251    3.5416 H         1 UNK         0.0815 
    110 H110       30.4953   30.4639    1.6645 H         1 UNK         0.2987 
    111 H111       30.4412   29.7406   -1.0693 H         1 UNK         0.0949 
    112 H112       31.5405   27.6179   -0.4572 H         1 UNK         0.0806 
    113 H113       32.7419   28.6441   -1.2035 H         1 UNK         0.0806 
    114 H114       32.7186   28.4354    0.5493 H         1 UNK         0.0806 
    115 H115       33.5875   30.2539    0.2707 H         1 UNK         0.3010 
    116 H116       33.6331   33.1472   -0.2510 H         1 UNK         0.0829 
    117 H117       35.6562   31.7866   -0.7241 H         1 UNK         0.0813 
    118 H118       35.9855   32.9172    0.5792 H         1 UNK         0.0813 
    119 H119       35.7094   31.2204    0.9445 H         1 UNK         0.0813 
    120 H120       31.9952   33.8525    1.1238 H         1 UNK         0.3038 
    121 H121       30.8681   34.5027    2.9163 H         1 UNK         0.0769 
    122 H122       33.4061   34.0977    4.6055 H         1 UNK         0.0811 
    123 H123       31.9844   35.0422    5.0486 H         1 UNK         0.0811 
    124 H124       33.0036   35.5650    3.7259 H         1 UNK         0.0811 
    125 H125       31.6669   33.0757    5.6664 H         1 UNK         0.3204 
    126 H126       29.8664   30.7911    5.3802 H         1 UNK         0.0748 
    127 H127       29.7998   32.2433    7.3998 H         1 UNK         0.0771 
    128 H128       30.1940   30.5872    7.8223 H         1 UNK         0.0771 
    129 H129       31.4642   31.8040    7.7885 H         1 UNK         0.0771 
    130 H130       31.8653   30.3941    3.6406 H         1 UNK         0.2980 
    131 H131       33.3877   29.0435    2.8461 H         1 UNK         0.0545 
    132 H132       36.0994   30.3438    4.8977 H         1 UNK         0.3459 
    133 H133       34.7519   30.9463    3.9531 H         1 UNK         0.3459 
    134 H134       32.7125   26.9557    4.9667 H         1 UNK         0.0616 
    135 H135       31.6246   27.3456    3.6636 H         1 UNK         0.0616 
    136 H136       34.5693   24.1452    3.3493 H         1 UNK         0.0634 
    137 H137       34.2494   25.0860    4.7859 H         1 UNK         0.0634 
@<TRIPOS>BOND
     1    1    2 1    
     2    1   72 1    
     3    1   73 1    
     4    1   74 1    
     5    2    3 2    
     6    2    4 am   BACKBONE|DICT|INTERRES
     7    4    5 1    
     8    4   75 1    
     9    5    6 1    
    10    5   35 1    
    11    5   76 1    
    12    6    7 1    
    13    6   77 1    
    14    6   78 1    
    15    7    8 1    
    16    8    9 1    
    17    8   79 1    
    18    8   80 1    
    19    9   10 ar   
    20    9   14 ar   
    21   10   11 ar   
    22   10   81 1    
    23   11   12 ar   
    24   11   71 1    
    25   12   13 ar   
    26   12   82 1    
    27   13   14 ar   
    28   13   15 1    
    29   14   83 1    
    30   15   16 1    
    31   15   84 1    
    32   15   85 1    
    33   16   17 1    
    34   17   18 1    
    35   17   86 1    
    36   17   87 1    
    37   18   19 1    
    38   18   37 1    
    39   18   88 1    
    40   19   20 am   BACKBONE|DICT|INTERRES
    41   19   89 1    
    42   20   21 2    
    43   20   22 1    
    44   22   23 1    
    45   22   24 1    
    46   22   90 1    
    47   23   91 1    
    48   23   92 1    
    49   23   93 1    
    50   24   25 am   BACKBONE|DICT|INTERRES
    51   24   94 1    
    52   25   26 2    
    53   25   27 1    
    54   27   28 1    
    55   27   29 1    
    56   27   95 1    
    57   28   96 1    
    58   28   97 1    
    59   28   98 1    
    60   29   30 am   BACKBONE|DICT|INTERRES
    61   29   99 1    
    62   30   31 2    
    63   30   32 1    
    64   32   33 1    
    65   32   34 1    
    66   32  100 1    
    67   33  101 1    
    68   33  102 1    
    69   33  103 1    
    70   34   35 am   BACKBONE|DICT|INTERRES
    71   34  104 1    
    72   35   36 2    
    73   37   38 2    
    74   37   39 am   BACKBONE|DICT|INTERRES
    75   39   40 1    
    76   39  105 1    
    77   40   41 1    
    78   40   42 1    
    79   40  106 1    
    80   41  107 1    
    81   41  108 1    
    82   41  109 1    
    83   42   43 2    
    84   42   44 am   BACKBONE|DICT|INTERRES
    85   44   45 1    
    86   44  110 1    
    87   45   46 1    
    88   45   47 1    
    89   45  111 1    
    90   46  112 1    
    91   46  113 1    
    92   46  114 1    
    93   47   48 2    
    94   47   49 am   BACKBONE|DICT|INTERRES
    95   49   50 1    
    96   49  115 1    
    97   50   51 1    
    98   50   52 1    
    99   50  116 1    
   100   51  117 1    
   101   51  118 1    
   102   51  119 1    
   103   52   53 2    
   104   52   54 am   BACKBONE|DICT|INTERRES
   105   54   55 1    
   106   54  120 1    
   107   55   56 1    
   108   55   57 1    
   109   55  121 1    
   110   56  122 1    
   111   56  123 1    
   112   56  124 1    
   113   57   58 2    
   114   57   59 am   BACKBONE|DICT|INTERRES
   115   59   60 1    
   116   59  125 1    
   117   60   61 1    
   118   60   62 1    
   119   60  126 1    
   120   61  127 1    
   121   61  128 1    
   122   61  129 1    
   123   62   63 2    
   124   62   64 am   BACKBONE|DICT|INTERRES
   125   64   65 1    
   126   64  130 1    
   127   65   66 1    
   128   65   69 1    
   129   65  131 1    
   130   66   67 am   BACKBONE|DICT|INTERRES
   131   66   68 2    
   132   67  132 1    
   133   67  133 1    
   134   69   70 1    
   135   69  134 1    
   136   69  135 1    
   137   70   71 1    
   138   71  136 1    
   139   71  137 1    
@<TRIPOS>SUBSTRUCTURE
     1 UNK         1 GROUP             0       ****    0 ROOT    
