@<TRIPOS>MOLECULE
3R136
137   139    1
SMALL
USER_CHARGES


@<TRIPOS>ATOM
      1 CA         28.4051   23.1279   -1.4870 C.3       0 UNK        -0.1979 
      2 C          28.3370   23.9415   -0.2051 C.2       0 UNK         0.4864 
      3 O          27.7825   25.0405   -0.2132 O.2       0 UNK        -0.5359 
      4 N          28.8893   23.4095    0.8948 N.am      1 UNK        -0.4318 
      5 CA         29.0277   24.0601    2.2092 C.3       1 UNK         0.0824 
      6 C6         29.7757   23.1337    3.2061 C.3       12 UNK        -0.0944 
      7 S7         30.8771   24.0381    4.3469 S.3       12 UNK        -0.2672 
      8 C8         32.5198   23.6928    3.6363 C.3       12 UNK         0.0333 
      9 C9         32.8833   24.7020    2.5575 C.ar      12 UNK        -0.0807 
     10 C10        33.6712   25.8087    2.8796 C.ar      12 UNK        -0.0894 
     11 C11        34.0066   26.7527    1.9057 C.ar      12 UNK        -0.0804 
     12 C12        33.5582   26.5766    0.5938 C.ar      12 UNK        -0.0824 
     13 C13        32.7449   25.4864    0.2622 C.ar      12 UNK        -0.0762 
     14 C14        32.4287   24.5423    1.2452 C.ar      12 UNK        -0.0782 
     15 C15        32.1688   25.3428   -1.1444 C.3       12 UNK         0.0230 
     16 S16        31.2471   26.8188   -1.7092 S.3       12 UNK        -0.2608 
     17 C17        30.3249   27.2942   -0.2086 C.3       12 UNK        -0.0989 
     18 CA         29.1391   28.2477   -0.4896 C.3       5 UNK         0.0716 
     19 N          28.1123   27.6139   -1.3168 N.am      5 UNK        -0.4135 
     20 C          27.4584   28.2221   -2.3134 C.2       4 UNK         0.5031 
     21 O          27.6404   29.3972   -2.6361 O.2       4 UNK        -0.5229 
     22 CA         26.4165   27.3934   -3.0891 C.3       4 UNK         0.0329 
     23 CB         27.0694   26.7454   -4.3210 C.3       4 UNK        -0.2001 
     24 N          25.7264   26.3555   -2.3146 N.am      4 UNK        -0.4303 
     25 C          25.0429   26.5445   -1.1776 C.2       3 UNK         0.5044 
     26 O          24.9878   27.6235   -0.5883 O.2       3 UNK        -0.5152 
     27 CA         24.3034   25.3374   -0.5848 C.3       3 UNK         0.0319 
     28 CB         24.1930   24.1228   -1.5306 C.3       3 UNK        -0.2001 
     29 N          24.9782   24.9367    0.6462 N.am      3 UNK        -0.4354 
     30 C          24.3644   24.6006    1.7889 C.2       2 UNK         0.4964 
     31 O          23.1401   24.6122    1.9272 O.2       2 UNK        -0.5047 
     32 CA         25.2445   24.1621    2.9767 C.3       2 UNK         0.0288 
     33 CB         24.6451   22.9440    3.7047 C.3       2 UNK        -0.2113 
     34 N          26.6089   23.8289    2.5604 N.am      2 UNK        -0.4145 
     35 C          27.6965   24.5719    2.8050 C.2       1 UNK         0.5006 
     36 O          27.6787   25.6244    3.4426 O.2       1 UNK        -0.5103 
     37 C          28.5755   28.7858    0.8409 C.2       5 UNK         0.5055 
     38 O          29.3531   29.3707    1.5930 O.2       5 UNK        -0.5220 
     39 N          27.2758   28.6063    1.1380 N.am      6 UNK        -0.4450 
     40 CA         26.6661   28.9121    2.4450 C.3       6 UNK         0.0367 
     41 CB         25.1792   28.5281    2.4309 C.3       6 UNK        -0.1929 
     42 C          26.8322   30.3629    2.9372 C.2       6 UNK         0.5070 
     43 O          26.8226   30.5942    4.1464 O.2       6 UNK        -0.5237 
     44 N          27.0049   31.3079    2.0042 N.am      7 UNK        -0.4739 
     45 CA         27.2753   32.7200    2.2814 C.3       7 UNK         0.0276 
     46 CB         27.0506   33.5281    0.9925 C.3       7 UNK        -0.1927 
     47 C          28.6828   32.9977    2.8486 C.2       7 UNK         0.5013 
     48 O          28.8846   34.0726    3.4159 O.2       7 UNK        -0.5193 
     49 N          29.6300   32.0633    2.6829 N.am      8 UNK        -0.4253 
     50 CA         31.0257   32.2069    3.1044 C.3       8 UNK         0.0242 
     51 CB         31.8273   32.9475    2.0137 C.3       8 UNK        -0.2000 
     52 C          31.6269   30.8396    3.4693 C.2       8 UNK         0.4948 
     53 O          32.7592   30.5441    3.0841 O.2       8 UNK        -0.5275 
     54 N          30.8469   30.0207    4.1867 N.am      9 UNK        -0.4246 
     55 CA         31.2135   28.6694    4.6142 C.3       9 UNK         0.0261 
     56 CB         29.9303   27.9194    5.0097 C.3       9 UNK        -0.1959 
     57 C          32.2317   28.6686    5.7696 C.2       9 UNK         0.5033 
     58 O          32.4605   29.7053    6.3983 O.2       9 UNK        -0.5390 
     59 N          32.7950   27.4813    6.0413 N.am      10 UNK        -0.4215 
     60 CA         33.7736   27.1833    7.0985 C.3       10 UNK         0.0240 
     61 CB         33.1382   27.3417    8.4971 C.3       10 UNK        -0.1982 
     62 C          35.1003   27.9574    6.9451 C.2       10 UNK         0.4970 
     63 O          35.6511   28.4494    7.9315 O.2       10 UNK        -0.4916 
     64 N          35.5950   28.0326    5.7036 N.am      11 UNK        -0.4279 
     65 CA         36.8817   28.6410    5.3266 C.3       11 UNK         0.1003 
     66 C          38.1480   27.8454    5.7651 C.2       11 UNK         0.5709 
     67 N          38.0339   26.6041    6.2237 N.am      11 UNK        -0.7358 
     68 O          39.2559   28.3733    5.7006 O.2       11 UNK        -0.4999 
     69 C69        36.9160   29.0049    3.8154 C.3       12 UNK        -0.0954 
     70 S70        36.5223   27.5995    2.7130 S.3       12 UNK        -0.2268 
     71 C71        34.7963   27.9910    2.2954 C.3       12 UNK         0.0203 
     72 H72        28.7658   23.7515   -2.3047 H         1 UNK         0.0888 
     73 H73        29.0770   22.2752   -1.3922 H         1 UNK         0.0888 
     74 H74        27.4165   22.7554   -1.7509 H         1 UNK         0.0888 
     75 H75        29.2910   22.4851    0.8283 H         1 UNK         0.3017 
     76 H76        29.6412   24.9456    2.0374 H         1 UNK         0.0873 
     77 H77        29.0793   22.5359    3.7980 H         1 UNK         0.0745 
     78 H78        30.3781   22.3997    2.6696 H         1 UNK         0.0745 
     79 H79        33.2558   23.7290    4.4410 H         1 UNK         0.0705 
     80 H80        32.5665   22.6772    3.2411 H         1 UNK         0.0705 
     81 H81        34.0233   25.9370    3.8923 H         1 UNK         0.1334 
     82 H82        33.7990   27.3124   -0.1615 H         1 UNK         0.1417 
     83 H83        31.8104   23.6917    0.9959 H         1 UNK         0.1562 
     84 H84        31.4982   24.4839   -1.1983 H         1 UNK         0.0748 
     85 H85        32.9807   25.1426   -1.8445 H         1 UNK         0.0748 
     86 H86        31.0397   27.7678    0.4676 H         1 UNK         0.0940 
     87 H87        29.9813   26.3955    0.3002 H         1 UNK         0.0940 
     88 H88        29.5429   29.1163   -1.0141 H         1 UNK         0.0703 
     89 H89        27.8958   26.6454   -1.0868 H         1 UNK         0.3081 
     90 H90        25.6513   28.0904   -3.4369 H         1 UNK         0.0719 
     91 H91        27.8183   26.0050   -4.0363 H         1 UNK         0.0809 
     92 H92        26.3297   26.2525   -4.9521 H         1 UNK         0.0809 
     93 H93        27.5699   27.4937   -4.9375 H         1 UNK         0.0809 
     94 H94        25.7338   25.4260   -2.7076 H         1 UNK         0.2990 
     95 H95        23.2928   25.6870   -0.3634 H         1 UNK         0.0690 
     96 H96        23.7151   24.3953   -2.4726 H         1 UNK         0.0788 
     97 H97        23.5829   23.3383   -1.0821 H         1 UNK         0.0788 
     98 H98        25.1662   23.6877   -1.7578 H         1 UNK         0.0788 
     99 H99        25.9935   24.9641    0.6111 H         1 UNK         0.2993 
    100 H100       25.2572   24.9998    3.6775 H         1 UNK         0.0949 
    101 H101       25.2652   22.6443    4.5499 H         1 UNK         0.0767 
    102 H102       23.6533   23.1682    4.0998 H         1 UNK         0.0767 
    103 H103       24.5462   22.0851    3.0397 H         1 UNK         0.0767 
    104 H104       26.7179   22.9902    2.0078 H         1 UNK         0.3013 
    105 H105       26.6677   28.1719    0.4509 H         1 UNK         0.3121 
    106 H106       27.1626   28.2762    3.1789 H         1 UNK         0.0774 
    107 H107       24.7172   28.7101    3.4022 H         1 UNK         0.0815 
    108 H108       24.6218   29.1032    1.6906 H         1 UNK         0.0815 
    109 H109       25.0468   27.4711    2.2062 H         1 UNK         0.0815 
    110 H110       27.0048   31.0222    1.0356 H         1 UNK         0.2987 
    111 H111       26.5558   33.0616    3.0289 H         1 UNK         0.0949 
    112 H112       27.7358   33.2232    0.2004 H         1 UNK         0.0806 
    113 H113       26.0323   33.4104    0.6215 H         1 UNK         0.0806 
    114 H114       27.2080   34.5936    1.1666 H         1 UNK         0.0806 
    115 H115       29.3934   31.1772    2.2387 H         1 UNK         0.3010 
    116 H116       31.0646   32.8019    4.0195 H         1 UNK         0.0829 
    117 H117       31.4089   33.9334    1.8109 H         1 UNK         0.0813 
    118 H118       32.8637   33.0955    2.3197 H         1 UNK         0.0813 
    119 H119       31.8376   32.3875    1.0779 H         1 UNK         0.0813 
    120 H120       29.9379   30.3535    4.4722 H         1 UNK         0.3038 
    121 H121       31.6654   28.1558    3.7622 H         1 UNK         0.0769 
    122 H122       29.4101   28.4109    5.8326 H         1 UNK         0.0811 
    123 H123       30.1401   26.8958    5.3210 H         1 UNK         0.0811 
    124 H124       29.2431   27.8552    4.1668 H         1 UNK         0.0811 
    125 H125       32.4963   26.6873    5.4920 H         1 UNK         0.3204 
    126 H126       34.0313   26.1295    6.9818 H         1 UNK         0.0748 
    127 H127       33.8166   26.9935    9.2771 H         1 UNK         0.0771 
    128 H128       32.8967   28.3818    8.7185 H         1 UNK         0.0771 
    129 H129       32.2211   26.7591    8.5844 H         1 UNK         0.0771 
    130 H130       35.0894   27.5984    4.9489 H         1 UNK         0.2980 
    131 H131       36.9464   29.5848    5.8713 H         1 UNK         0.0545 
    132 H132       38.8629   26.1069    6.5085 H         1 UNK         0.3459 
    133 H133       37.1339   26.1570    6.2776 H         1 UNK         0.3459 
    134 H134       36.2140   29.8177    3.6222 H         1 UNK         0.0616 
    135 H135       37.8928   29.4013    3.5323 H         1 UNK         0.0616 
    136 H136       34.7792   28.7378    1.5000 H         1 UNK         0.0634 
    137 H137       34.3067   28.4488    3.1546 H         1 UNK         0.0634 
@<TRIPOS>BOND
     1    1    2 1    
     2    1   72 1    
     3    1   73 1    
     4    1   74 1    
     5    2    3 2    
     6    2    4 am   BACKBONE|DICT|INTERRES
     7    4    5 1    
     8    4   75 1    
     9    5    6 1    
    10    5   35 1    
    11    5   76 1    
    12    6    7 1    
    13    6   77 1    
    14    6   78 1    
    15    7    8 1    
    16    8    9 1    
    17    8   79 1    
    18    8   80 1    
    19    9   10 ar   
    20    9   14 ar   
    21   10   11 ar   
    22   10   81 1    
    23   11   12 ar   
    24   11   71 1    
    25   12   13 ar   
    26   12   82 1    
    27   13   14 ar   
    28   13   15 1    
    29   14   83 1    
    30   15   16 1    
    31   15   84 1    
    32   15   85 1    
    33   16   17 1    
    34   17   18 1    
    35   17   86 1    
    36   17   87 1    
    37   18   19 1    
    38   18   37 1    
    39   18   88 1    
    40   19   20 am   BACKBONE|DICT|INTERRES
    41   19   89 1    
    42   20   21 2    
    43   20   22 1    
    44   22   23 1    
    45   22   24 1    
    46   22   90 1    
    47   23   91 1    
    48   23   92 1    
    49   23   93 1    
    50   24   25 am   BACKBONE|DICT|INTERRES
    51   24   94 1    
    52   25   26 2    
    53   25   27 1    
    54   27   28 1    
    55   27   29 1    
    56   27   95 1    
    57   28   96 1    
    58   28   97 1    
    59   28   98 1    
    60   29   30 am   BACKBONE|DICT|INTERRES
    61   29   99 1    
    62   30   31 2    
    63   30   32 1    
    64   32   33 1    
    65   32   34 1    
    66   32  100 1    
    67   33  101 1    
    68   33  102 1    
    69   33  103 1    
    70   34   35 am   BACKBONE|DICT|INTERRES
    71   34  104 1    
    72   35   36 2    
    73   37   38 2    
    74   37   39 am   BACKBONE|DICT|INTERRES
    75   39   40 1    
    76   39  105 1    
    77   40   41 1    
    78   40   42 1    
    79   40  106 1    
    80   41  107 1    
    81   41  108 1    
    82   41  109 1    
    83   42   43 2    
    84   42   44 am   BACKBONE|DICT|INTERRES
    85   44   45 1    
    86   44  110 1    
    87   45   46 1    
    88   45   47 1    
    89   45  111 1    
    90   46  112 1    
    91   46  113 1    
    92   46  114 1    
    93   47   48 2    
    94   47   49 am   BACKBONE|DICT|INTERRES
    95   49   50 1    
    96   49  115 1    
    97   50   51 1    
    98   50   52 1    
    99   50  116 1    
   100   51  117 1    
   101   51  118 1    
   102   51  119 1    
   103   52   53 2    
   104   52   54 am   BACKBONE|DICT|INTERRES
   105   54   55 1    
   106   54  120 1    
   107   55   56 1    
   108   55   57 1    
   109   55  121 1    
   110   56  122 1    
   111   56  123 1    
   112   56  124 1    
   113   57   58 2    
   114   57   59 am   BACKBONE|DICT|INTERRES
   115   59   60 1    
   116   59  125 1    
   117   60   61 1    
   118   60   62 1    
   119   60  126 1    
   120   61  127 1    
   121   61  128 1    
   122   61  129 1    
   123   62   63 2    
   124   62   64 am   BACKBONE|DICT|INTERRES
   125   64   65 1    
   126   64  130 1    
   127   65   66 1    
   128   65   69 1    
   129   65  131 1    
   130   66   67 am   BACKBONE|DICT|INTERRES
   131   66   68 2    
   132   67  132 1    
   133   67  133 1    
   134   69   70 1    
   135   69  134 1    
   136   69  135 1    
   137   70   71 1    
   138   71  136 1    
   139   71  137 1    
@<TRIPOS>SUBSTRUCTURE
     1 UNK         1 GROUP             0       ****    0 ROOT    
