@<TRIPOS>MOLECULE
3R136
137   139    1
SMALL
USER_CHARGES


@<TRIPOS>ATOM
      1 CA         31.2452   19.0594   -1.5504 C.3       0 UNK        -0.1979 
      2 C          31.0922   20.5687   -1.4397 C.2       0 UNK         0.4864 
      3 O          31.1241   21.2659   -2.4551 O.2       0 UNK        -0.5359 
      4 N          30.9079   21.0836   -0.2175 N.am      1 UNK        -0.4318 
      5 CA         30.7510   22.5057    0.1180 C.3       1 UNK         0.0824 
      6 C6         31.1982   22.7840    1.5795 C.3       12 UNK        -0.0944 
      7 S7         30.3472   21.7680    2.8374 S.3       12 UNK        -0.2672 
      8 C8         31.1099   22.3906    4.3694 C.3       12 UNK         0.0333 
      9 C9         30.6343   23.7930    4.7260 C.ar      12 UNK        -0.0807 
     10 C10        31.4864   24.8917    4.5744 C.ar      12 UNK        -0.0894 
     11 C11        31.0580   26.1736    4.9332 C.ar      12 UNK        -0.0804 
     12 C12        29.7691   26.3550    5.4405 C.ar      12 UNK        -0.0824 
     13 C13        28.9046   25.2681    5.5847 C.ar      12 UNK        -0.0762 
     14 C14        29.3446   23.9883    5.2309 C.ar      12 UNK        -0.0782 
     15 C15        27.4955   25.4708    6.1190 C.3       12 UNK         0.0230 
     16 S16        26.3003   25.5709    4.7524 S.3       12 UNK        -0.2608 
     17 C17        25.8437   27.3410    4.7326 C.3       12 UNK        -0.0989 
     18 CA         26.8790   28.3048    4.0839 C.3       5 UNK         0.0716 
     19 N          27.5672   27.7200    2.9330 N.am      5 UNK        -0.4135 
     20 C          28.6225   28.2455    2.2956 C.2       4 UNK         0.5031 
     21 O          29.1926   29.2873    2.6275 O.2       4 UNK        -0.5229 
     22 CA         29.1060   27.4833    1.0510 C.3       4 UNK         0.0329 
     23 CB         30.1855   26.4687    1.4437 C.3       4 UNK        -0.2001 
     24 N          28.0324   26.7893    0.3273 N.am      4 UNK        -0.4303 
     25 C          26.9811   27.3951   -0.2482 C.2       3 UNK         0.5044 
     26 O          26.7809   28.6077   -0.1658 O.2       3 UNK        -0.5152 
     27 CA         25.9461   26.5235   -0.9903 C.3       3 UNK         0.0319 
     28 CB         25.4690   27.1879   -2.2992 C.3       3 UNK        -0.2001 
     29 N          26.3546   25.1310   -1.2232 N.am      3 UNK        -0.4354 
     30 C          27.3661   24.6870   -1.9836 C.2       2 UNK         0.4964 
     31 O          28.1275   25.4093   -2.6297 O.2       2 UNK        -0.5047 
     32 CA         27.5751   23.1633   -1.9979 C.3       2 UNK         0.0288 
     33 CB         27.4256   22.5977   -3.4202 C.3       2 UNK        -0.2113 
     34 N          28.8828   22.7821   -1.4621 N.am      2 UNK        -0.4145 
     35 C          29.3422   23.0529   -0.2320 C.2       1 UNK         0.5006 
     36 O          28.6941   23.6958    0.5974 O.2       1 UNK        -0.5103 
     37 C          26.1960   29.6365    3.7100 C.2       5 UNK         0.5055 
     38 O          26.3058   30.6117    4.4534 O.2       5 UNK        -0.5220 
     39 N          25.5044   29.6420    2.5601 N.am      6 UNK        -0.4450 
     40 CA         24.7799   30.7932    2.0190 C.3       6 UNK         0.0367 
     41 CB         23.7495   30.3096    0.9854 C.3       6 UNK        -0.1929 
     42 C          25.7246   31.8300    1.3953 C.2       6 UNK         0.5070 
     43 O          25.4966   33.0294    1.5524 O.2       6 UNK        -0.5237 
     44 N          26.7770   31.3513    0.7173 N.am      7 UNK        -0.4739 
     45 CA         27.8367   32.1745    0.1289 C.3       7 UNK         0.0276 
     46 CB         28.6789   31.3023   -0.8160 C.3       7 UNK        -0.1927 
     47 C          28.7427   32.8505    1.1743 C.2       7 UNK         0.5013 
     48 O          29.3957   33.8398    0.8403 O.2       7 UNK        -0.5193 
     49 N          28.7724   32.2987    2.3982 N.am      8 UNK        -0.4253 
     50 CA         29.6197   32.6775    3.5337 C.3       8 UNK         0.0242 
     51 CB         29.2612   34.0865    4.0527 C.3       8 UNK        -0.2000 
     52 C          31.1119   32.5072    3.1969 C.2       8 UNK         0.4948 
     53 O          31.8993   33.4448    3.3474 O.2       8 UNK        -0.5275 
     54 N          31.4555   31.3094    2.7051 N.am      9 UNK        -0.4246 
     55 CA         32.8112   30.9206    2.3117 C.3       9 UNK         0.0261 
     56 CB         32.7213   29.6299    1.4801 C.3       9 UNK        -0.1959 
     57 C          33.7529   30.7392    3.5190 C.2       9 UNK         0.5033 
     58 O          33.2999   30.7026    4.6648 O.2       9 UNK        -0.5390 
     59 N          35.0551   30.5995    3.2318 N.am      10 UNK        -0.4215 
     60 CA         36.1142   30.3718    4.2249 C.3       10 UNK         0.0240 
     61 CB         37.4818   30.6167    3.5650 C.3       10 UNK        -0.1982 
     62 C          36.0781   28.9773    4.8837 C.2       10 UNK         0.4970 
     63 O          36.6587   28.8109    5.9569 O.2       10 UNK        -0.4916 
     64 N          35.4128   28.0134    4.2316 N.am      11 UNK        -0.4279 
     65 CA         35.1923   26.6277    4.6883 C.3       11 UNK         0.1003 
     66 C          36.4610   25.7217    4.6738 C.2       11 UNK         0.5709 
     67 N          37.5583   26.1267    4.0452 N.am      11 UNK        -0.7358 
     68 O          36.4427   24.6160    5.2098 O.2       11 UNK        -0.4999 
     69 C69        34.4032   26.5177    6.0326 C.3       12 UNK        -0.0954 
     70 S70        32.9888   27.6590    6.2441 S.3       12 UNK        -0.2268 
     71 C71        31.9731   27.3733    4.7629 C.3       12 UNK         0.0203 
     72 H72        30.4562   18.6474   -2.1789 H         1 UNK         0.0888 
     73 H73        32.2055   18.8124   -2.0023 H         1 UNK         0.0888 
     74 H74        31.1931   18.5722   -0.5769 H         1 UNK         0.0888 
     75 H75        30.8515   20.4611    0.5771 H         1 UNK         0.3017 
     76 H76        31.4361   23.0671   -0.5213 H         1 UNK         0.0873 
     77 H77        32.2683   22.5896    1.6674 H         1 UNK         0.0745 
     78 H78        31.0766   23.8368    1.8283 H         1 UNK         0.0745 
     79 H79        30.8595   21.7112    5.1855 H         1 UNK         0.0705 
     80 H80        32.1963   22.3597    4.2723 H         1 UNK         0.0705 
     81 H81        32.4837   24.7487    4.1827 H         1 UNK         0.1334 
     82 H82        29.4404   27.3460    5.7192 H         1 UNK         0.1417 
     83 H83        28.6793   23.1425    5.3403 H         1 UNK         0.1562 
     84 H84        27.4420   26.3642    6.7428 H         1 UNK         0.0748 
     85 H85        27.2244   24.6337    6.7641 H         1 UNK         0.0748 
     86 H86        25.6207   27.6630    5.7517 H         1 UNK         0.0940 
     87 H87        24.8896   27.3870    4.2027 H         1 UNK         0.0940 
     88 H88        27.6429   28.5312    4.8294 H         1 UNK         0.0703 
     89 H89        27.2116   26.8309    2.6133 H         1 UNK         0.3081 
     90 H90        29.5499   28.2101    0.3688 H         1 UNK         0.0719 
     91 H91        29.7873   25.7175    2.1273 H         1 UNK         0.0809 
     92 H92        30.5883   25.9578    0.5694 H         1 UNK         0.0809 
     93 H93        31.0195   26.9521    1.9484 H         1 UNK         0.0809 
     94 H94        28.1178   25.7822    0.2466 H         1 UNK         0.2990 
     95 H95        25.0841   26.4686   -0.3240 H         1 UNK         0.0690 
     96 H96        24.7147   26.5817   -2.8007 H         1 UNK         0.0788 
     97 H97        26.2918   27.3464   -2.9969 H         1 UNK         0.0788 
     98 H98        25.0202   28.1627   -2.1039 H         1 UNK         0.0788 
     99 H99        25.8184   24.4423   -0.7125 H         1 UNK         0.2993 
    100 H100       26.8171   22.6946   -1.3668 H         1 UNK         0.0949 
    101 H101       27.5037   21.5102   -3.4254 H         1 UNK         0.0767 
    102 H102       26.4534   22.8552   -3.8428 H         1 UNK         0.0767 
    103 H103       28.1891   22.9915   -4.0928 H         1 UNK         0.0767 
    104 H104       29.5074   22.2757   -2.0833 H         1 UNK         0.3013 
    105 H105       25.5185   28.8116    1.9859 H         1 UNK         0.3121 
    106 H106       24.2422   31.2790    2.8364 H         1 UNK         0.0774 
    107 H107       24.2249   29.8037    0.1438 H         1 UNK         0.0815 
    108 H108       23.1811   31.1485    0.5814 H         1 UNK         0.0815 
    109 H109       23.0333   29.6195    1.4315 H         1 UNK         0.0815 
    110 H110       26.8437   30.3469    0.5656 H         1 UNK         0.2987 
    111 H111       27.3654   32.9659   -0.4580 H         1 UNK         0.0949 
    112 H112       29.1870   30.5031   -0.2759 H         1 UNK         0.0806 
    113 H113       28.0631   30.8445   -1.5905 H         1 UNK         0.0806 
    114 H114       29.4448   31.8953   -1.3175 H         1 UNK         0.0806 
    115 H115       28.2299   31.4548    2.5299 H         1 UNK         0.3010 
    116 H116       29.3997   31.9659    4.3314 H         1 UNK         0.0829 
    117 H117       29.4916   34.8620    3.3217 H         1 UNK         0.0813 
    118 H118       28.2014   34.1596    4.2969 H         1 UNK         0.0813 
    119 H119       29.8208   34.3197    4.9593 H         1 UNK         0.0813 
    120 H120       30.7366   30.5939    2.6463 H         1 UNK         0.3038 
    121 H121       33.2192   31.7145    1.6824 H         1 UNK         0.0769 
    122 H122       33.6940   29.3380    1.0831 H         1 UNK         0.0811 
    123 H123       32.3484   28.8007    2.0779 H         1 UNK         0.0811 
    124 H124       32.0523   29.7527    0.6278 H         1 UNK         0.0811 
    125 H125       35.3477   30.6555    2.2663 H         1 UNK         0.3204 
    126 H126       35.9863   31.1053    5.0240 H         1 UNK         0.0748 
    127 H127       38.2922   30.4850    4.2837 H         1 UNK         0.0771 
    128 H128       37.6633   29.9272    2.7396 H         1 UNK         0.0771 
    129 H129       37.5595   31.6330    3.1780 H         1 UNK         0.0771 
    130 H130       35.0023   28.2476    3.3414 H         1 UNK         0.2980 
    131 H131       34.5661   26.1820    3.9166 H         1 UNK         0.0545 
    132 H132       38.3684   25.5273    4.0323 H         1 UNK         0.3459 
    133 H133       37.5877   27.0265    3.5945 H         1 UNK         0.3459 
    134 H134       34.0308   25.5007    6.1660 H         1 UNK         0.0616 
    135 H135       35.0776   26.6978    6.8714 H         1 UNK         0.0616 
    136 H136       32.5971   27.2561    3.8794 H         1 UNK         0.0634 
    137 H137       31.3754   28.2685    4.5818 H         1 UNK         0.0634 
@<TRIPOS>BOND
     1    1    2 1    
     2    1   72 1    
     3    1   73 1    
     4    1   74 1    
     5    2    3 2    
     6    2    4 am   BACKBONE|DICT|INTERRES
     7    4    5 1    
     8    4   75 1    
     9    5    6 1    
    10    5   35 1    
    11    5   76 1    
    12    6    7 1    
    13    6   77 1    
    14    6   78 1    
    15    7    8 1    
    16    8    9 1    
    17    8   79 1    
    18    8   80 1    
    19    9   10 ar   
    20    9   14 ar   
    21   10   11 ar   
    22   10   81 1    
    23   11   12 ar   
    24   11   71 1    
    25   12   13 ar   
    26   12   82 1    
    27   13   14 ar   
    28   13   15 1    
    29   14   83 1    
    30   15   16 1    
    31   15   84 1    
    32   15   85 1    
    33   16   17 1    
    34   17   18 1    
    35   17   86 1    
    36   17   87 1    
    37   18   19 1    
    38   18   37 1    
    39   18   88 1    
    40   19   20 am   BACKBONE|DICT|INTERRES
    41   19   89 1    
    42   20   21 2    
    43   20   22 1    
    44   22   23 1    
    45   22   24 1    
    46   22   90 1    
    47   23   91 1    
    48   23   92 1    
    49   23   93 1    
    50   24   25 am   BACKBONE|DICT|INTERRES
    51   24   94 1    
    52   25   26 2    
    53   25   27 1    
    54   27   28 1    
    55   27   29 1    
    56   27   95 1    
    57   28   96 1    
    58   28   97 1    
    59   28   98 1    
    60   29   30 am   BACKBONE|DICT|INTERRES
    61   29   99 1    
    62   30   31 2    
    63   30   32 1    
    64   32   33 1    
    65   32   34 1    
    66   32  100 1    
    67   33  101 1    
    68   33  102 1    
    69   33  103 1    
    70   34   35 am   BACKBONE|DICT|INTERRES
    71   34  104 1    
    72   35   36 2    
    73   37   38 2    
    74   37   39 am   BACKBONE|DICT|INTERRES
    75   39   40 1    
    76   39  105 1    
    77   40   41 1    
    78   40   42 1    
    79   40  106 1    
    80   41  107 1    
    81   41  108 1    
    82   41  109 1    
    83   42   43 2    
    84   42   44 am   BACKBONE|DICT|INTERRES
    85   44   45 1    
    86   44  110 1    
    87   45   46 1    
    88   45   47 1    
    89   45  111 1    
    90   46  112 1    
    91   46  113 1    
    92   46  114 1    
    93   47   48 2    
    94   47   49 am   BACKBONE|DICT|INTERRES
    95   49   50 1    
    96   49  115 1    
    97   50   51 1    
    98   50   52 1    
    99   50  116 1    
   100   51  117 1    
   101   51  118 1    
   102   51  119 1    
   103   52   53 2    
   104   52   54 am   BACKBONE|DICT|INTERRES
   105   54   55 1    
   106   54  120 1    
   107   55   56 1    
   108   55   57 1    
   109   55  121 1    
   110   56  122 1    
   111   56  123 1    
   112   56  124 1    
   113   57   58 2    
   114   57   59 am   BACKBONE|DICT|INTERRES
   115   59   60 1    
   116   59  125 1    
   117   60   61 1    
   118   60   62 1    
   119   60  126 1    
   120   61  127 1    
   121   61  128 1    
   122   61  129 1    
   123   62   63 2    
   124   62   64 am   BACKBONE|DICT|INTERRES
   125   64   65 1    
   126   64  130 1    
   127   65   66 1    
   128   65   69 1    
   129   65  131 1    
   130   66   67 am   BACKBONE|DICT|INTERRES
   131   66   68 2    
   132   67  132 1    
   133   67  133 1    
   134   69   70 1    
   135   69  134 1    
   136   69  135 1    
   137   70   71 1    
   138   71  136 1    
   139   71  137 1    
@<TRIPOS>SUBSTRUCTURE
     1 UNK         1 GROUP             0       ****    0 ROOT    
