@<TRIPOS>MOLECULE
3R136
137   139    1
SMALL
USER_CHARGES


@<TRIPOS>ATOM
      1 CA         28.5673   19.4083    3.5443 C.3       0 UNK        -0.1979 
      2 C          28.4136   19.5562    2.0378 C.2       0 UNK         0.4864 
      3 O          27.6059   18.8516    1.4317 O.2       0 UNK        -0.5359 
      4 N          29.1799   20.4728    1.4306 N.am      1 UNK        -0.4318 
      5 CA         29.1712   20.7640   -0.0097 C.3       1 UNK         0.0824 
      6 C6         30.4723   21.4895   -0.4491 C.3       12 UNK        -0.0944 
      7 S7         30.6298   23.2021    0.1683 S.3       12 UNK        -0.2672 
      8 C8         31.6176   22.9889    1.6859 C.3       12 UNK         0.0333 
      9 C9         31.1693   23.9713    2.7585 C.ar      12 UNK        -0.0807 
     10 C10        32.0309   24.9672    3.2296 C.ar      12 UNK        -0.0894 
     11 C11        31.5894   25.8910    4.1835 C.ar      12 UNK        -0.0804 
     12 C12        30.2799   25.8134    4.6685 C.ar      12 UNK        -0.0824 
     13 C13        29.4128   24.8185    4.2092 C.ar      12 UNK        -0.0762 
     14 C14        29.8712   23.8925    3.2693 C.ar      12 UNK        -0.0782 
     15 C15        27.9809   24.7313    4.7177 C.3       12 UNK         0.0230 
     16 S16        26.7819   24.8848    3.3542 S.3       12 UNK        -0.2608 
     17 C17        26.3631   26.6590    3.3772 C.3       12 UNK        -0.0989 
     18 CA         27.5070   27.6070    2.9396 C.3       5 UNK         0.0716 
     19 N          28.0877   27.2527    1.6341 N.am      5 UNK        -0.4135 
     20 C          29.1297   27.8771    1.0599 C.2       4 UNK         0.5031 
     21 O          29.6550   28.8855    1.5295 O.2       4 UNK        -0.5229 
     22 CA         29.6791   27.3271   -0.2658 C.3       4 UNK         0.0329 
     23 CB         31.0949   26.7684   -0.0683 C.3       4 UNK        -0.2001 
     24 N          28.8266   26.3129   -0.8930 N.am      4 UNK        -0.4303 
     25 C          27.7682   26.6130   -1.6588 C.2       3 UNK         0.5044 
     26 O          27.3555   27.7599   -1.8362 O.2       3 UNK        -0.5152 
     27 CA         27.0538   25.4422   -2.3529 C.3       3 UNK         0.0319 
     28 CB         27.8196   25.0149   -3.6154 C.3       3 UNK        -0.2001 
     29 N          26.8510   24.2753   -1.4936 N.am      3 UNK        -0.4354 
     30 C          26.0781   24.2429   -0.4018 C.2       2 UNK         0.4964 
     31 O          25.4977   25.2304    0.0488 O.2       2 UNK        -0.5047 
     32 CA         25.9095   22.8866    0.3077 C.3       2 UNK         0.0288 
     33 CB         24.7881   22.0557   -0.3467 C.3       2 UNK        -0.2113 
     34 N          27.1467   22.1045    0.4547 N.am      2 UNK        -0.4145 
     35 C          27.8997   21.5084   -0.4854 C.2       1 UNK         0.5006 
     36 O          27.6488   21.5519   -1.6913 O.2       1 UNK        -0.5103 
     37 C          27.0363   29.0740    3.0411 C.2       5 UNK         0.5055 
     38 O          27.0693   29.6410    4.1338 O.2       5 UNK        -0.5220 
     39 N          26.6544   29.6782    1.9059 N.am      6 UNK        -0.4450 
     40 CA         26.3014   31.0949    1.7783 C.3       6 UNK         0.0367 
     41 CB         25.7776   31.3529    0.3564 C.3       6 UNK        -0.1929 
     42 C          27.4527   32.0664    2.1107 C.2       6 UNK         0.5070 
     43 O          27.1785   33.2118    2.4691 O.2       6 UNK        -0.5237 
     44 N          28.7088   31.6068    2.0058 N.am      7 UNK        -0.4739 
     45 CA         29.9047   32.3701    2.3734 C.3       7 UNK         0.0276 
     46 CB         31.0839   31.8930    1.5128 C.3       7 UNK        -0.1927 
     47 C          30.2502   32.2628    3.8710 C.2       7 UNK         0.5013 
     48 O          31.1711   32.9538    4.3158 O.2       7 UNK        -0.5193 
     49 N          29.5297   31.4053    4.6137 N.am      8 UNK        -0.4253 
     50 CA         29.6042   31.1190    6.0536 C.3       8 UNK         0.0242 
     51 CB         29.2144   32.3555    6.8877 C.3       8 UNK        -0.2000 
     52 C          30.9431   30.5246    6.5238 C.2       8 UNK         0.4948 
     53 O          30.9558   29.4285    7.0848 O.2       8 UNK        -0.5275 
     54 N          32.0303   31.2653    6.2980 N.am      9 UNK        -0.4246 
     55 CA         33.4073   30.9011    6.6231 C.3       9 UNK         0.0261 
     56 CB         33.8115   31.5604    7.9527 C.3       9 UNK        -0.1959 
     57 C          34.3945   31.2728    5.5046 C.2       9 UNK         0.5033 
     58 O          35.4875   30.7060    5.4763 O.2       9 UNK        -0.5390 
     59 N          34.0210   32.1721    4.5789 N.am      10 UNK        -0.4215 
     60 CA         34.8478   32.5954    3.4397 C.3       10 UNK         0.0240 
     61 CB         34.4830   34.0470    3.0750 C.3       10 UNK        -0.1982 
     62 C          34.7070   31.6285    2.2454 C.2       10 UNK         0.4970 
     63 O          34.5487   32.0665    1.1050 O.2       10 UNK        -0.4916 
     64 N          34.7213   30.3267    2.5429 N.am      11 UNK        -0.4279 
     65 CA         34.3640   29.2295    1.6332 C.3       11 UNK         0.1003 
     66 C          35.4704   28.8356    0.6132 C.2       11 UNK         0.5709 
     67 N          36.6817   29.3722    0.7025 N.am      11 UNK        -0.7358 
     68 O          35.2214   28.0331   -0.2829 O.2       11 UNK        -0.4999 
     69 C69        33.8615   27.9969    2.4305 C.3       12 UNK        -0.0954 
     70 S70        32.5092   28.4208    3.5834 S.3       12 UNK        -0.2268 
     71 C71        32.5183   26.9815    4.6918 C.3       12 UNK         0.0203 
     72 H72        27.6161   19.6022    4.0393 H         1 UNK         0.0888 
     73 H73        28.8791   18.3938    3.7912 H         1 UNK         0.0888 
     74 H74        29.3071   20.0982    3.9503 H         1 UNK         0.0888 
     75 H75        29.8425   21.0022    1.9762 H         1 UNK         0.3017 
     76 H76        29.1575   19.8013   -0.5258 H         1 UNK         0.0873 
     77 H77        31.3476   20.9121   -0.1469 H         1 UNK         0.0745 
     78 H78        30.5189   21.5290   -1.5391 H         1 UNK         0.0745 
     79 H79        32.6723   23.1263    1.4424 H         1 UNK         0.0705 
     80 H80        31.5204   21.9744    2.0723 H         1 UNK         0.0705 
     81 H81        33.0389   25.0353    2.8446 H         1 UNK         0.1334 
     82 H82        29.9368   26.5344    5.3983 H         1 UNK         0.1417 
     83 H83        29.1981   23.1288    2.9084 H         1 UNK         0.1562 
     84 H84        27.7807   25.4863    5.4795 H         1 UNK         0.0748 
     85 H85        27.8400   23.7632    5.2004 H         1 UNK         0.0748 
     86 H86        26.0207   26.9109    4.3833 H         1 UNK         0.0940 
     87 H87        25.4970   26.7922    2.7252 H         1 UNK         0.0940 
     88 H88        28.3161   27.5098    3.6639 H         1 UNK         0.0703 
     89 H89        27.6997   26.4373    1.1821 H         1 UNK         0.3081 
     90 H90        29.7619   28.1752   -0.9494 H         1 UNK         0.0719 
     91 H91        31.7813   27.5676    0.2118 H         1 UNK         0.0809 
     92 H92        31.4833   26.3127   -0.9790 H         1 UNK         0.0809 
     93 H93        31.1258   26.0247    0.7263 H         1 UNK         0.0809 
     94 H94        29.1005   25.3458   -0.7844 H         1 UNK         0.2990 
     95 H95        26.0678   25.7975   -2.6601 H         1 UNK         0.0690 
     96 H96        27.2691   24.2586   -4.1754 H         1 UNK         0.0788 
     97 H97        28.8009   24.6038   -3.3740 H         1 UNK         0.0788 
     98 H98        27.9753   25.8624   -4.2845 H         1 UNK         0.0788 
     99 H99        27.2639   23.3956   -1.7931 H         1 UNK         0.2993 
    100 H100       25.5842   23.1110    1.3243 H         1 UNK         0.0949 
    101 H101       23.8467   22.6068   -0.3459 H         1 UNK         0.0767 
    102 H102       25.0139   21.8051   -1.3836 H         1 UNK         0.0767 
    103 H103       24.6191   21.1244    0.1941 H         1 UNK         0.0767 
    104 H104       27.4749   22.0190    1.4052 H         1 UNK         0.3013 
    105 H105       26.6708   29.1374    1.0528 H         1 UNK         0.3121 
    106 H106       25.4935   31.2983    2.4844 H         1 UNK         0.0774 
    107 H107       25.4809   32.3955    0.2325 H         1 UNK         0.0815 
    108 H108       26.5360   31.1382   -0.3979 H         1 UNK         0.0815 
    109 H109       24.9021   30.7414    0.1373 H         1 UNK         0.0815 
    110 H110       28.8684   30.6400    1.7305 H         1 UNK         0.2987 
    111 H111       29.7347   33.4266    2.1550 H         1 UNK         0.0949 
    112 H112       30.8328   31.8898    0.4522 H         1 UNK         0.0806 
    113 H113       31.9389   32.5561    1.6371 H         1 UNK         0.0806 
    114 H114       31.4065   30.8874    1.7857 H         1 UNK         0.0806 
    115 H115       28.8107   30.8793    4.1293 H         1 UNK         0.3010 
    116 H116       28.8466   30.3548    6.2361 H         1 UNK         0.0829 
    117 H117       28.2116   32.6998    6.6348 H         1 UNK         0.0813 
    118 H118       29.2173   32.1228    7.9534 H         1 UNK         0.0813 
    119 H119       29.9004   33.1894    6.7360 H         1 UNK         0.0813 
    120 H120       31.8776   32.1279    5.7830 H         1 UNK         0.3038 
    121 H121       33.4730   29.8170    6.7397 H         1 UNK         0.0769 
    122 H122       33.7523   32.6480    7.8969 H         1 UNK         0.0811 
    123 H123       34.8359   31.3008    8.2233 H         1 UNK         0.0811 
    124 H124       33.1681   31.2308    8.7687 H         1 UNK         0.0811 
    125 H125       33.0794   32.5495    4.5929 H         1 UNK         0.3204 
    126 H126       35.8993   32.5852    3.7342 H         1 UNK         0.0748 
    127 H127       35.1062   34.4173    2.2599 H         1 UNK         0.0771 
    128 H128       33.4428   34.1360    2.7598 H         1 UNK         0.0771 
    129 H129       34.6326   34.7164    3.9224 H         1 UNK         0.0771 
    130 H130       34.8986   30.0652    3.5043 H         1 UNK         0.2980 
    131 H131       33.5260   29.5787    1.0267 H         1 UNK         0.0545 
    132 H132       36.8918   30.0369    1.4294 H         1 UNK         0.3459 
    133 H133       37.3884   29.1127    0.0326 H         1 UNK         0.3459 
    134 H134       33.5052   27.2166    1.7572 H         1 UNK         0.0616 
    135 H135       34.6854   27.5615    2.9985 H         1 UNK         0.0616 
    136 H136       32.2019   27.3090    5.6832 H         1 UNK         0.0634 
    137 H137       33.5315   26.5960    4.8116 H         1 UNK         0.0634 
@<TRIPOS>BOND
     1    1    2 1    
     2    1   72 1    
     3    1   73 1    
     4    1   74 1    
     5    2    3 2    
     6    2    4 am   BACKBONE|DICT|INTERRES
     7    4    5 1    
     8    4   75 1    
     9    5    6 1    
    10    5   35 1    
    11    5   76 1    
    12    6    7 1    
    13    6   77 1    
    14    6   78 1    
    15    7    8 1    
    16    8    9 1    
    17    8   79 1    
    18    8   80 1    
    19    9   10 ar   
    20    9   14 ar   
    21   10   11 ar   
    22   10   81 1    
    23   11   12 ar   
    24   11   71 1    
    25   12   13 ar   
    26   12   82 1    
    27   13   14 ar   
    28   13   15 1    
    29   14   83 1    
    30   15   16 1    
    31   15   84 1    
    32   15   85 1    
    33   16   17 1    
    34   17   18 1    
    35   17   86 1    
    36   17   87 1    
    37   18   19 1    
    38   18   37 1    
    39   18   88 1    
    40   19   20 am   BACKBONE|DICT|INTERRES
    41   19   89 1    
    42   20   21 2    
    43   20   22 1    
    44   22   23 1    
    45   22   24 1    
    46   22   90 1    
    47   23   91 1    
    48   23   92 1    
    49   23   93 1    
    50   24   25 am   BACKBONE|DICT|INTERRES
    51   24   94 1    
    52   25   26 2    
    53   25   27 1    
    54   27   28 1    
    55   27   29 1    
    56   27   95 1    
    57   28   96 1    
    58   28   97 1    
    59   28   98 1    
    60   29   30 am   BACKBONE|DICT|INTERRES
    61   29   99 1    
    62   30   31 2    
    63   30   32 1    
    64   32   33 1    
    65   32   34 1    
    66   32  100 1    
    67   33  101 1    
    68   33  102 1    
    69   33  103 1    
    70   34   35 am   BACKBONE|DICT|INTERRES
    71   34  104 1    
    72   35   36 2    
    73   37   38 2    
    74   37   39 am   BACKBONE|DICT|INTERRES
    75   39   40 1    
    76   39  105 1    
    77   40   41 1    
    78   40   42 1    
    79   40  106 1    
    80   41  107 1    
    81   41  108 1    
    82   41  109 1    
    83   42   43 2    
    84   42   44 am   BACKBONE|DICT|INTERRES
    85   44   45 1    
    86   44  110 1    
    87   45   46 1    
    88   45   47 1    
    89   45  111 1    
    90   46  112 1    
    91   46  113 1    
    92   46  114 1    
    93   47   48 2    
    94   47   49 am   BACKBONE|DICT|INTERRES
    95   49   50 1    
    96   49  115 1    
    97   50   51 1    
    98   50   52 1    
    99   50  116 1    
   100   51  117 1    
   101   51  118 1    
   102   51  119 1    
   103   52   53 2    
   104   52   54 am   BACKBONE|DICT|INTERRES
   105   54   55 1    
   106   54  120 1    
   107   55   56 1    
   108   55   57 1    
   109   55  121 1    
   110   56  122 1    
   111   56  123 1    
   112   56  124 1    
   113   57   58 2    
   114   57   59 am   BACKBONE|DICT|INTERRES
   115   59   60 1    
   116   59  125 1    
   117   60   61 1    
   118   60   62 1    
   119   60  126 1    
   120   61  127 1    
   121   61  128 1    
   122   61  129 1    
   123   62   63 2    
   124   62   64 am   BACKBONE|DICT|INTERRES
   125   64   65 1    
   126   64  130 1    
   127   65   66 1    
   128   65   69 1    
   129   65  131 1    
   130   66   67 am   BACKBONE|DICT|INTERRES
   131   66   68 2    
   132   67  132 1    
   133   67  133 1    
   134   69   70 1    
   135   69  134 1    
   136   69  135 1    
   137   70   71 1    
   138   71  136 1    
   139   71  137 1    
@<TRIPOS>SUBSTRUCTURE
     1 UNK         1 GROUP             0       ****    0 ROOT    
