@<TRIPOS>MOLECULE
3R136
137   139    1
SMALL
USER_CHARGES


@<TRIPOS>ATOM
      1 CA         32.1697   20.4434   -1.4790 C.3       0 UNK        -0.1979 
      2 C          31.3315   21.3755   -0.6174 C.2       0 UNK         0.4864 
      3 O          31.4066   22.5925   -0.7838 O.2       0 UNK        -0.5359 
      4 N          30.5275   20.8122    0.2950 N.am      1 UNK        -0.4318 
      5 CA         29.6874   21.5540    1.2474 C.3       1 UNK         0.0824 
      6 C6         29.3581   20.7218    2.5147 C.3       12 UNK        -0.0944 
      7 S7         30.8571   20.0897    3.3486 S.3       12 UNK        -0.2672 
      8 C8         31.1454   21.3412    4.6454 C.3       12 UNK         0.0333 
      9 C9         31.3202   22.7424    4.0735 C.ar      12 UNK        -0.0807 
     10 C10        32.3754   23.0236    3.1995 C.ar      12 UNK        -0.0894 
     11 C11        32.5014   24.2907    2.6209 C.ar      12 UNK        -0.0804 
     12 C12        31.5786   25.2888    2.9459 C.ar      12 UNK        -0.0824 
     13 C13        30.5425   25.0302    3.8468 C.ar      12 UNK        -0.0762 
     14 C14        30.4123   23.7538    4.4011 C.ar      12 UNK        -0.0782 
     15 C15        29.5665   26.1294    4.2270 C.3       12 UNK         0.0230 
     16 S16        28.1071   26.1178    3.1448 S.3       12 UNK        -0.2608 
     17 C17        27.1902   27.5284    3.8439 C.3       12 UNK        -0.0989 
     18 CA         27.5923   28.8522    3.1575 C.3       5 UNK         0.0716 
     19 N          27.2078   28.8837    1.7468 N.am      5 UNK        -0.4135 
     20 C          27.5328   29.8367    0.8666 C.2       4 UNK         0.5031 
     21 O          28.1830   30.8439    1.1583 O.2       4 UNK        -0.5229 
     22 CA         27.1167   29.5816   -0.5957 C.3       4 UNK         0.0329 
     23 CB         27.4301   30.7795   -1.5120 C.3       4 UNK        -0.2001 
     24 N          27.7787   28.3891   -1.1353 N.am      4 UNK        -0.4303 
     25 C          27.4564   27.1226   -0.8415 C.2       3 UNK         0.5044 
     26 O          26.4981   26.8128   -0.1272 O.2       3 UNK        -0.5152 
     27 CA         28.3858   26.0399   -1.4063 C.3       3 UNK         0.0319 
     28 CB         29.7741   26.1141   -0.7422 C.3       3 UNK        -0.2001 
     29 N          27.8267   24.7180   -1.1388 N.am      3 UNK        -0.4354 
     30 C          27.5801   23.7635   -2.0407 C.2       2 UNK         0.4964 
     31 O          27.7747   23.8936   -3.2509 O.2       2 UNK        -0.5047 
     32 CA         27.0773   22.4192   -1.4755 C.3       2 UNK         0.0288 
     33 CB         26.6572   21.4274   -2.5769 C.3       2 UNK        -0.2113 
     34 N          28.1176   21.7993   -0.6512 N.am      2 UNK        -0.4145 
     35 C          28.4100   22.1442    0.6116 C.2       1 UNK         0.5006 
     36 O          27.7208   22.9294    1.2646 O.2       1 UNK        -0.5103 
     37 C          27.0455   30.0659    3.9260 C.2       5 UNK         0.5055 
     38 O          25.8601   30.3819    3.8029 O.2       5 UNK        -0.5220 
     39 N          27.9341   30.7327    4.6746 N.am      6 UNK        -0.4450 
     40 CA         27.7474   31.9579    5.4650 C.3       6 UNK         0.0367 
     41 CB         26.6263   31.8071    6.5119 C.3       6 UNK        -0.1929 
     42 C          27.5598   33.2303    4.6184 C.2       6 UNK         0.5070 
     43 O          28.0007   34.2982    5.0438 O.2       6 UNK        -0.5237 
     44 N          26.9437   33.1058    3.4360 N.am      7 UNK        -0.4739 
     45 CA         26.8078   34.1674    2.4381 C.3       7 UNK         0.0276 
     46 CB         25.8062   33.7270    1.3588 C.3       7 UNK        -0.1927 
     47 C          28.1558   34.5553    1.8069 C.2       7 UNK         0.5013 
     48 O          28.3866   35.7412    1.5657 O.2       7 UNK        -0.5193 
     49 N          29.0200   33.5598    1.5704 N.am      8 UNK        -0.4253 
     50 CA         30.3714   33.7412    1.0429 C.3       8 UNK         0.0242 
     51 CB         30.3418   33.7814   -0.4957 C.3       8 UNK        -0.2000 
     52 C          31.3409   32.6627    1.5450 C.2       8 UNK         0.4948 
     53 O          32.4744   32.9986    1.8915 O.2       8 UNK        -0.5275 
     54 N          30.9073   31.3949    1.5580 N.am      9 UNK        -0.4246 
     55 CA         31.7371   30.2507    1.9383 C.3       9 UNK         0.0261 
     56 CB         31.2769   29.0128    1.1503 C.3       9 UNK        -0.1959 
     57 C          31.6675   29.9905    3.4503 C.2       9 UNK         0.5033 
     58 O          30.6164   30.1945    4.0627 O.2       9 UNK        -0.5390 
     59 N          32.7760   29.5001    4.0122 N.am      10 UNK        -0.4215 
     60 CA         32.9341   29.1232    5.4162 C.3       10 UNK         0.0240 
     61 CB         32.8740   30.3634    6.3365 C.3       10 UNK        -0.1982 
     62 C          34.2608   28.3631    5.5384 C.2       10 UNK         0.4970 
     63 O          35.2394   28.9094    6.0506 O.2       10 UNK        -0.4916 
     64 N          34.2906   27.1411    4.9930 N.am      11 UNK        -0.4279 
     65 CA         35.5048   26.3125    4.8747 C.3       11 UNK         0.1003 
     66 C          36.0159   25.6933    6.2090 C.2       11 UNK         0.5709 
     67 N          35.2516   25.7231    7.2944 N.am      11 UNK        -0.7358 
     68 O          37.1322   25.1821    6.2602 O.2       11 UNK        -0.4999 
     69 C69        35.3680   25.2226    3.7774 C.3       12 UNK        -0.0954 
     70 S70        34.7594   25.8823    2.1846 S.3       12 UNK        -0.2268 
     71 C71        33.6235   24.5687    1.6288 C.3       12 UNK         0.0203 
     72 H72        33.2289   20.6592   -1.3415 H         1 UNK         0.0888 
     73 H73        32.0023   19.3957   -1.2295 H         1 UNK         0.0888 
     74 H74        31.9267   20.5852   -2.5317 H         1 UNK         0.0888 
     75 H75        30.5189   19.8072    0.4000 H         1 UNK         0.3017 
     76 H76        30.2577   22.4268    1.5664 H         1 UNK         0.0873 
     77 H77        28.7824   21.3146    3.2285 H         1 UNK         0.0745 
     78 H78        28.7302   19.8676    2.2551 H         1 UNK         0.0745 
     79 H79        32.0424   21.0707    5.2042 H         1 UNK         0.0705 
     80 H80        30.3188   21.3090    5.3569 H         1 UNK         0.0705 
     81 H81        33.0770   22.2412    2.9442 H         1 UNK         0.1334 
     82 H82        31.6704   26.2677    2.4993 H         1 UNK         0.1417 
     83 H83        29.5957   23.5482    5.0799 H         1 UNK         0.1562 
     84 H84        30.0569   27.1026    4.1683 H         1 UNK         0.0748 
     85 H85        29.2524   26.0045    5.2645 H         1 UNK         0.0748 
     86 H86        27.3731   27.5695    4.9199 H         1 UNK         0.0940 
     87 H87        26.1203   27.3446    3.7276 H         1 UNK         0.0940 
     88 H88        28.6787   28.9115    3.1721 H         1 UNK         0.0703 
     89 H89        26.7222   28.0652    1.3936 H         1 UNK         0.3081 
     90 H90        26.0360   29.4242   -0.6059 H         1 UNK         0.0719 
     91 H91        28.5013   30.9746   -1.5691 H         1 UNK         0.0809 
     92 H92        27.0663   30.6089   -2.5253 H         1 UNK         0.0809 
     93 H93        26.9522   31.6896   -1.1480 H         1 UNK         0.0809 
     94 H94        28.5898   28.5558   -1.7133 H         1 UNK         0.2990 
     95 H95        28.4876   26.2059   -2.4807 H         1 UNK         0.0690 
     96 H96        30.4231   25.3111   -1.0934 H         1 UNK         0.0788 
     97 H97        29.7073   26.0313    0.3439 H         1 UNK         0.0788 
     98 H98        30.2769   27.0539   -0.9705 H         1 UNK         0.0788 
     99 H99        27.6009   24.5293   -0.1675 H         1 UNK         0.2993 
    100 H100       26.2002   22.6266   -0.8581 H         1 UNK         0.0949 
    101 H101       27.4924   21.1653   -3.2279 H         1 UNK         0.0767 
    102 H102       26.2635   20.5050   -2.1493 H         1 UNK         0.0767 
    103 H103       25.8734   21.8522   -3.2054 H         1 UNK         0.0767 
    104 H104       28.7535   21.1743   -1.1242 H         1 UNK         0.3013 
    105 H105       28.9104   30.4397    4.5949 H         1 UNK         0.3121 
    106 H106       28.6846   32.0897    6.0086 H         1 UNK         0.0774 
    107 H107       26.5974   32.6739    7.1733 H         1 UNK         0.0815 
    108 H108       25.6420   31.7236    6.0506 H         1 UNK         0.0815 
    109 H109       26.7817   30.9277    7.1366 H         1 UNK         0.0815 
    110 H110       26.5707   32.1929    3.1990 H         1 UNK         0.2987 
    111 H111       26.4088   35.0533    2.9372 H         1 UNK         0.0949 
    112 H112       25.6874   34.4991    0.5974 H         1 UNK         0.0806 
    113 H113       26.1311   32.8170    0.8544 H         1 UNK         0.0806 
    114 H114       24.8211   33.5389    1.7861 H         1 UNK         0.0806 
    115 H115       28.7206   32.6064    1.7535 H         1 UNK         0.3010 
    116 H116       30.7600   34.6971    1.4018 H         1 UNK         0.0829 
    117 H117       29.7432   34.6164   -0.8598 H         1 UNK         0.0813 
    118 H118       31.3464   33.9014   -0.9035 H         1 UNK         0.0813 
    119 H119       29.9256   32.8644   -0.9132 H         1 UNK         0.0813 
    120 H120       29.9399   31.1897    1.3172 H         1 UNK         0.3038 
    121 H121       32.7733   30.4577    1.6614 H         1 UNK         0.0769 
    122 H122       30.2952   28.6624    1.4680 H         1 UNK         0.0811 
    123 H123       31.9786   28.1892    1.2807 H         1 UNK         0.0811 
    124 H124       31.2270   29.2209    0.0814 H         1 UNK         0.0811 
    125 H125       33.5926   29.3499    3.4337 H         1 UNK         0.3204 
    126 H126       32.1274   28.4417    5.6944 H         1 UNK         0.0748 
    127 H127       33.0763   30.0905    7.3730 H         1 UNK         0.0771 
    128 H128       33.6075   31.1165    6.0462 H         1 UNK         0.0771 
    129 H129       31.8904   30.8325    6.3177 H         1 UNK         0.0771 
    130 H130       33.4541   26.7543    4.5825 H         1 UNK         0.2980 
    131 H131       36.3032   26.9812    4.5467 H         1 UNK         0.0545 
    132 H132       35.5971   25.3229    8.1523 H         1 UNK         0.3459 
    133 H133       34.3357   26.1401    7.2637 H         1 UNK         0.3459 
    134 H134       34.7089   24.4275    4.1266 H         1 UNK         0.0616 
    135 H135       36.3336   24.7497    3.5901 H         1 UNK         0.0616 
    136 H136       34.2030   23.6649    1.4344 H         1 UNK         0.0634 
    137 H137       33.1846   24.8615    0.6739 H         1 UNK         0.0634 
@<TRIPOS>BOND
     1    1    2 1    
     2    1   72 1    
     3    1   73 1    
     4    1   74 1    
     5    2    3 2    
     6    2    4 am   BACKBONE|DICT|INTERRES
     7    4    5 1    
     8    4   75 1    
     9    5    6 1    
    10    5   35 1    
    11    5   76 1    
    12    6    7 1    
    13    6   77 1    
    14    6   78 1    
    15    7    8 1    
    16    8    9 1    
    17    8   79 1    
    18    8   80 1    
    19    9   10 ar   
    20    9   14 ar   
    21   10   11 ar   
    22   10   81 1    
    23   11   12 ar   
    24   11   71 1    
    25   12   13 ar   
    26   12   82 1    
    27   13   14 ar   
    28   13   15 1    
    29   14   83 1    
    30   15   16 1    
    31   15   84 1    
    32   15   85 1    
    33   16   17 1    
    34   17   18 1    
    35   17   86 1    
    36   17   87 1    
    37   18   19 1    
    38   18   37 1    
    39   18   88 1    
    40   19   20 am   BACKBONE|DICT|INTERRES
    41   19   89 1    
    42   20   21 2    
    43   20   22 1    
    44   22   23 1    
    45   22   24 1    
    46   22   90 1    
    47   23   91 1    
    48   23   92 1    
    49   23   93 1    
    50   24   25 am   BACKBONE|DICT|INTERRES
    51   24   94 1    
    52   25   26 2    
    53   25   27 1    
    54   27   28 1    
    55   27   29 1    
    56   27   95 1    
    57   28   96 1    
    58   28   97 1    
    59   28   98 1    
    60   29   30 am   BACKBONE|DICT|INTERRES
    61   29   99 1    
    62   30   31 2    
    63   30   32 1    
    64   32   33 1    
    65   32   34 1    
    66   32  100 1    
    67   33  101 1    
    68   33  102 1    
    69   33  103 1    
    70   34   35 am   BACKBONE|DICT|INTERRES
    71   34  104 1    
    72   35   36 2    
    73   37   38 2    
    74   37   39 am   BACKBONE|DICT|INTERRES
    75   39   40 1    
    76   39  105 1    
    77   40   41 1    
    78   40   42 1    
    79   40  106 1    
    80   41  107 1    
    81   41  108 1    
    82   41  109 1    
    83   42   43 2    
    84   42   44 am   BACKBONE|DICT|INTERRES
    85   44   45 1    
    86   44  110 1    
    87   45   46 1    
    88   45   47 1    
    89   45  111 1    
    90   46  112 1    
    91   46  113 1    
    92   46  114 1    
    93   47   48 2    
    94   47   49 am   BACKBONE|DICT|INTERRES
    95   49   50 1    
    96   49  115 1    
    97   50   51 1    
    98   50   52 1    
    99   50  116 1    
   100   51  117 1    
   101   51  118 1    
   102   51  119 1    
   103   52   53 2    
   104   52   54 am   BACKBONE|DICT|INTERRES
   105   54   55 1    
   106   54  120 1    
   107   55   56 1    
   108   55   57 1    
   109   55  121 1    
   110   56  122 1    
   111   56  123 1    
   112   56  124 1    
   113   57   58 2    
   114   57   59 am   BACKBONE|DICT|INTERRES
   115   59   60 1    
   116   59  125 1    
   117   60   61 1    
   118   60   62 1    
   119   60  126 1    
   120   61  127 1    
   121   61  128 1    
   122   61  129 1    
   123   62   63 2    
   124   62   64 am   BACKBONE|DICT|INTERRES
   125   64   65 1    
   126   64  130 1    
   127   65   66 1    
   128   65   69 1    
   129   65  131 1    
   130   66   67 am   BACKBONE|DICT|INTERRES
   131   66   68 2    
   132   67  132 1    
   133   67  133 1    
   134   69   70 1    
   135   69  134 1    
   136   69  135 1    
   137   70   71 1    
   138   71  136 1    
   139   71  137 1    
@<TRIPOS>SUBSTRUCTURE
     1 UNK         1 GROUP             0       ****    0 ROOT    
