@<TRIPOS>MOLECULE
3R136
137   139    1
SMALL
USER_CHARGES


@<TRIPOS>ATOM
      1 CA         28.5917   22.4507   -3.8127 C.3       0 UNK        -0.1979 
      2 C          28.6743   23.0515   -2.4184 C.2       0 UNK         0.4864 
      3 O          28.2919   24.2072   -2.2281 O.2       0 UNK        -0.5359 
      4 N          29.1545   22.2742   -1.4363 N.am      1 UNK        -0.4318 
      5 CA         29.3535   22.6915   -0.0408 C.3       1 UNK         0.0824 
      6 C6         30.0188   21.5847    0.8108 C.3       12 UNK        -0.0944 
      7 S7         31.7976   21.4604    0.4229 S.3       12 UNK        -0.2672 
      8 C8         32.5830   21.8941    2.0122 C.3       12 UNK         0.0333 
      9 C9         32.2651   23.3115    2.4779 C.ar      12 UNK        -0.0807 
     10 C10        32.9374   24.4094    1.9305 C.ar      12 UNK        -0.0894 
     11 C11        32.6735   25.7033    2.3940 C.ar      12 UNK        -0.0804 
     12 C12        31.7200   25.8991    3.3966 C.ar      12 UNK        -0.0824 
     13 C13        31.0465   24.8111    3.9561 C.ar      12 UNK        -0.0762 
     14 C14        31.3291   23.5211    3.4960 C.ar      12 UNK        -0.0782 
     15 C15        30.0402   25.0107    5.0808 C.3       12 UNK         0.0230 
     16 S16        28.3568   24.5730    4.5457 S.3       12 UNK        -0.2608 
     17 C17        27.4752   26.1659    4.4395 C.3       12 UNK        -0.0989 
     18 CA         28.1442   27.3008    3.6190 C.3       5 UNK         0.0716 
     19 N          28.4407   26.9370    2.2251 N.am      5 UNK        -0.4135 
     20 C          29.0786   27.7428    1.3584 C.2       4 UNK         0.5031 
     21 O          29.5147   28.8534    1.6540 O.2       4 UNK        -0.5229 
     22 CA         29.2009   27.2838   -0.1040 C.3       4 UNK         0.0329 
     23 CB         30.4221   26.3739   -0.2880 C.3       4 UNK        -0.2001 
     24 N          27.9921   26.6368   -0.6203 N.am      4 UNK        -0.4303 
     25 C          26.7858   27.2204   -0.6891 C.2       3 UNK         0.5044 
     26 O          26.5588   28.3664   -0.3016 O.2       3 UNK        -0.5152 
     27 CA         25.6338   26.3805   -1.2603 C.3       3 UNK         0.0319 
     28 CB         25.6335   26.4257   -2.7965 C.3       3 UNK        -0.2001 
     29 N          25.7151   24.9931   -0.8044 N.am      3 UNK        -0.4354 
     30 C          25.2656   24.5683    0.3857 C.2       2 UNK         0.4964 
     31 O          24.6353   25.2759    1.1722 O.2       2 UNK        -0.5047 
     32 CA         25.5993   23.1169    0.7839 C.3       2 UNK         0.0288 
     33 CB         24.5089   22.1552    0.2847 C.3       2 UNK        -0.2113 
     34 N          26.9093   22.6576    0.3082 N.am      2 UNK        -0.4145 
     35 C          28.0772   23.2332    0.6327 C.2       1 UNK         0.5006 
     36 O          28.1680   24.2051    1.3798 O.2       1 UNK        -0.5103 
     37 C          27.2715   28.5698    3.7325 C.2       5 UNK         0.5055 
     38 O          27.4856   29.3672    4.6460 O.2       5 UNK        -0.5220 
     39 N          26.3034   28.7312    2.8183 N.am      6 UNK        -0.4450 
     40 CA         25.4302   29.9040    2.7539 C.3       6 UNK         0.0367 
     41 CB         24.1715   29.5712    1.9363 C.3       6 UNK        -0.1929 
     42 C          26.1533   31.1316    2.1763 C.2       6 UNK         0.5070 
     43 O          25.8949   32.2478    2.6273 O.2       6 UNK        -0.5237 
     44 N          27.0407   30.9077    1.1969 N.am      7 UNK        -0.4739 
     45 CA         27.8638   31.9406    0.5673 C.3       7 UNK         0.0276 
     46 CB         28.5016   31.3859   -0.7171 C.3       7 UNK        -0.1927 
     47 C          28.9323   32.5063    1.5180 C.2       7 UNK         0.5013 
     48 O          29.0079   33.7258    1.6764 O.2       7 UNK        -0.5193 
     49 N          29.7268   31.6222    2.1350 N.am      8 UNK        -0.4253 
     50 CA         30.7998   31.9617    3.0659 C.3       8 UNK         0.0242 
     51 CB         31.9875   32.6137    2.3244 C.3       8 UNK        -0.2000 
     52 C          31.2379   30.6896    3.7981 C.2       8 UNK         0.4948 
     53 O          32.0469   29.9317    3.2638 O.2       8 UNK        -0.5275 
     54 N          30.7145   30.4775    5.0137 N.am      9 UNK        -0.4246 
     55 CA         31.0692   29.3444    5.8781 C.3       9 UNK         0.0261 
     56 CB         30.1546   29.3277    7.1131 C.3       9 UNK        -0.1959 
     57 C          32.5495   29.3263    6.3032 C.2       9 UNK         0.5033 
     58 O          33.1186   28.2473    6.4675 O.2       9 UNK        -0.5390 
     59 N          33.1516   30.5139    6.4477 N.am      10 UNK        -0.4215 
     60 CA         34.5614   30.7170    6.7844 C.3       10 UNK         0.0240 
     61 CB         34.6793   31.9503    7.7009 C.3       10 UNK        -0.1982 
     62 C          35.4311   30.8328    5.5164 C.2       10 UNK         0.4970 
     63 O          36.2244   31.7688    5.4006 O.2       10 UNK        -0.4916 
     64 N          35.2658   29.8888    4.5816 N.am      11 UNK        -0.4279 
     65 CA         36.0449   29.7902    3.3353 C.3       11 UNK         0.1003 
     66 C          37.5309   29.3558    3.5127 C.2       11 UNK         0.5709 
     67 N          37.9490   28.8608    4.6722 N.am      11 UNK        -0.7358 
     68 O          38.3231   29.4859    2.5821 O.2       11 UNK        -0.4999 
     69 C69        35.3145   28.9367    2.2637 C.3       12 UNK        -0.0954 
     70 S70        34.9006   27.2517    2.8320 S.3       12 UNK        -0.2268 
     71 C71        33.4239   26.8987    1.8327 C.3       12 UNK         0.0203 
     72 H72        27.5603   22.4599   -4.1637 H         1 UNK         0.0888 
     73 H73        29.1934   23.0363   -4.5071 H         1 UNK         0.0888 
     74 H74        28.9505   21.4219   -3.8359 H         1 UNK         0.0888 
     75 H75        29.4638   21.3379   -1.6563 H         1 UNK         0.3017 
     76 H76        30.0431   23.5333   -0.0781 H         1 UNK         0.0873 
     77 H77        29.9003   21.7764    1.8779 H         1 UNK         0.0745 
     78 H78        29.5450   20.6179    0.6323 H         1 UNK         0.0745 
     79 H79        33.6635   21.7858    1.9069 H         1 UNK         0.0705 
     80 H80        32.2816   21.1659    2.7670 H         1 UNK         0.0705 
     81 H81        33.6761   24.2548    1.1559 H         1 UNK         0.1334 
     82 H82        31.5223   26.9017    3.7476 H         1 UNK         0.1417 
     83 H83        30.8152   22.6785    3.9382 H         1 UNK         0.1562 
     84 H84        30.0717   26.0263    5.4754 H         1 UNK         0.0748 
     85 H85        30.3155   24.3619    5.9135 H         1 UNK         0.0748 
     86 H86        27.3053   26.4983    5.4661 H         1 UNK         0.0940 
     87 H87        26.4854   25.9485    4.0321 H         1 UNK         0.0940 
     88 H88        29.0990   27.5473    4.0817 H         1 UNK         0.0703 
     89 H89        28.1857   25.9960    1.9287 H         1 UNK         0.3081 
     90 H90        29.3577   28.1717   -0.7190 H         1 UNK         0.0719 
     91 H91        31.3411   26.9541   -0.2075 H         1 UNK         0.0809 
     92 H92        30.4297   25.8893   -1.2644 H         1 UNK         0.0809 
     93 H93        30.4644   25.6045    0.4815 H         1 UNK         0.0809 
     94 H94        28.0990   25.7035   -1.0078 H         1 UNK         0.2990 
     95 H95        24.6954   26.8183   -0.9126 H         1 UNK         0.0690 
     96 H96        24.7929   25.8673   -3.2085 H         1 UNK         0.0788 
     97 H97        26.5500   26.0110   -3.2178 H         1 UNK         0.0788 
     98 H98        25.5470   27.4527   -3.1541 H         1 UNK         0.0788 
     99 H99        26.2800   24.3678   -1.3658 H         1 UNK         0.2993 
    100 H100       25.6179   23.0797    1.8755 H         1 UNK         0.0949 
    101 H101       23.5251   22.4618    0.6432 H         1 UNK         0.0767 
    102 H102       24.4643   22.1249   -0.8048 H         1 UNK         0.0767 
    103 H103       24.6801   21.1401    0.6435 H         1 UNK         0.0767 
    104 H104       26.9190   21.8741   -0.3286 H         1 UNK         0.3013 
    105 H105       26.2151   28.0550    2.0719 H         1 UNK         0.3121 
    106 H106       25.1133   30.1532    3.7692 H         1 UNK         0.0774 
    107 H107       23.4838   30.4177    1.9228 H         1 UNK         0.0815 
    108 H108       24.4091   29.3312    0.8998 H         1 UNK         0.0815 
    109 H109       23.6339   28.7236    2.3617 H         1 UNK         0.0815 
    110 H110       27.1456   29.9601    0.8490 H         1 UNK         0.2987 
    111 H111       27.2041   32.7640    0.2843 H         1 UNK         0.0949 
    112 H112       27.7441   31.0187   -1.4100 H         1 UNK         0.0806 
    113 H113       29.0687   32.1605   -1.2349 H         1 UNK         0.0806 
    114 H114       29.1883   30.5660   -0.5080 H         1 UNK         0.0806 
    115 H115       29.6013   30.6236    1.9557 H         1 UNK         0.3010 
    116 H116       30.4167   32.6727    3.8009 H         1 UNK         0.0829 
    117 H117       31.7179   33.5816    1.9024 H         1 UNK         0.0813 
    118 H118       32.8261   32.7811    3.0017 H         1 UNK         0.0813 
    119 H119       32.3476   31.9830    1.5105 H         1 UNK         0.0813 
    120 H120       30.0185   31.1189    5.3674 H         1 UNK         0.3038 
    121 H121       30.8874   28.4313    5.3124 H         1 UNK         0.0769 
    122 H122       30.2647   30.2330    7.7113 H         1 UNK         0.0811 
    123 H123       30.3873   28.4797    7.7589 H         1 UNK         0.0811 
    124 H124       29.1059   29.2368    6.8305 H         1 UNK         0.0811 
    125 H125       32.6108   31.3445    6.2551 H         1 UNK         0.3204 
    126 H126       34.9309   29.8556    7.3448 H         1 UNK         0.0748 
    127 H127       35.7106   32.1032    8.0222 H         1 UNK         0.0771 
    128 H128       34.3550   32.8619    7.1973 H         1 UNK         0.0771 
    129 H129       34.0774   31.8327    8.6023 H         1 UNK         0.0771 
    130 H130       34.5923   29.1510    4.7393 H         1 UNK         0.2980 
    131 H131       36.0997   30.8020    2.9290 H         1 UNK         0.0545 
    132 H132       37.3059   28.7388    5.4371 H         1 UNK         0.3459 
    133 H133       38.9143   28.5899    4.7739 H         1 UNK         0.3459 
    134 H134       34.3936   29.4471    1.9786 H         1 UNK         0.0616 
    135 H135       35.9041   28.8641    1.3481 H         1 UNK         0.0616 
    136 H136       32.7650   27.7683    1.8193 H         1 UNK         0.0634 
    137 H137       33.7213   26.7165    0.7991 H         1 UNK         0.0634 
@<TRIPOS>BOND
     1    1    2 1    
     2    1   72 1    
     3    1   73 1    
     4    1   74 1    
     5    2    3 2    
     6    2    4 am   BACKBONE|DICT|INTERRES
     7    4    5 1    
     8    4   75 1    
     9    5    6 1    
    10    5   35 1    
    11    5   76 1    
    12    6    7 1    
    13    6   77 1    
    14    6   78 1    
    15    7    8 1    
    16    8    9 1    
    17    8   79 1    
    18    8   80 1    
    19    9   10 ar   
    20    9   14 ar   
    21   10   11 ar   
    22   10   81 1    
    23   11   12 ar   
    24   11   71 1    
    25   12   13 ar   
    26   12   82 1    
    27   13   14 ar   
    28   13   15 1    
    29   14   83 1    
    30   15   16 1    
    31   15   84 1    
    32   15   85 1    
    33   16   17 1    
    34   17   18 1    
    35   17   86 1    
    36   17   87 1    
    37   18   19 1    
    38   18   37 1    
    39   18   88 1    
    40   19   20 am   BACKBONE|DICT|INTERRES
    41   19   89 1    
    42   20   21 2    
    43   20   22 1    
    44   22   23 1    
    45   22   24 1    
    46   22   90 1    
    47   23   91 1    
    48   23   92 1    
    49   23   93 1    
    50   24   25 am   BACKBONE|DICT|INTERRES
    51   24   94 1    
    52   25   26 2    
    53   25   27 1    
    54   27   28 1    
    55   27   29 1    
    56   27   95 1    
    57   28   96 1    
    58   28   97 1    
    59   28   98 1    
    60   29   30 am   BACKBONE|DICT|INTERRES
    61   29   99 1    
    62   30   31 2    
    63   30   32 1    
    64   32   33 1    
    65   32   34 1    
    66   32  100 1    
    67   33  101 1    
    68   33  102 1    
    69   33  103 1    
    70   34   35 am   BACKBONE|DICT|INTERRES
    71   34  104 1    
    72   35   36 2    
    73   37   38 2    
    74   37   39 am   BACKBONE|DICT|INTERRES
    75   39   40 1    
    76   39  105 1    
    77   40   41 1    
    78   40   42 1    
    79   40  106 1    
    80   41  107 1    
    81   41  108 1    
    82   41  109 1    
    83   42   43 2    
    84   42   44 am   BACKBONE|DICT|INTERRES
    85   44   45 1    
    86   44  110 1    
    87   45   46 1    
    88   45   47 1    
    89   45  111 1    
    90   46  112 1    
    91   46  113 1    
    92   46  114 1    
    93   47   48 2    
    94   47   49 am   BACKBONE|DICT|INTERRES
    95   49   50 1    
    96   49  115 1    
    97   50   51 1    
    98   50   52 1    
    99   50  116 1    
   100   51  117 1    
   101   51  118 1    
   102   51  119 1    
   103   52   53 2    
   104   52   54 am   BACKBONE|DICT|INTERRES
   105   54   55 1    
   106   54  120 1    
   107   55   56 1    
   108   55   57 1    
   109   55  121 1    
   110   56  122 1    
   111   56  123 1    
   112   56  124 1    
   113   57   58 2    
   114   57   59 am   BACKBONE|DICT|INTERRES
   115   59   60 1    
   116   59  125 1    
   117   60   61 1    
   118   60   62 1    
   119   60  126 1    
   120   61  127 1    
   121   61  128 1    
   122   61  129 1    
   123   62   63 2    
   124   62   64 am   BACKBONE|DICT|INTERRES
   125   64   65 1    
   126   64  130 1    
   127   65   66 1    
   128   65   69 1    
   129   65  131 1    
   130   66   67 am   BACKBONE|DICT|INTERRES
   131   66   68 2    
   132   67  132 1    
   133   67  133 1    
   134   69   70 1    
   135   69  134 1    
   136   69  135 1    
   137   70   71 1    
   138   71  136 1    
   139   71  137 1    
@<TRIPOS>SUBSTRUCTURE
     1 UNK         1 GROUP             0       ****    0 ROOT    
