@<TRIPOS>MOLECULE
3R136
137   139    1
SMALL
USER_CHARGES


@<TRIPOS>ATOM
      1 CA         27.6935   21.7130   -1.1621 C.3       0 UNK        -0.1979 
      2 C          28.5912   22.9275   -0.9826 C.2       0 UNK         0.4864 
      3 O          28.2168   23.8558   -0.2659 O.2       0 UNK        -0.5359 
      4 N          29.7651   22.9275   -1.6305 N.am      1 UNK        -0.4318 
      5 CA         30.7956   23.9743   -1.5655 C.3       1 UNK         0.0824 
      6 C6         31.5201   24.0274   -0.1900 C.3       12 UNK        -0.0944 
      7 S7         32.3012   22.4372    0.2399 S.3       12 UNK        -0.2672 
      8 C8         33.0522   22.8359    1.8516 C.3       12 UNK         0.0333 
      9 C9         32.0285   23.3032    2.8794 C.ar      12 UNK        -0.0807 
     10 C10        32.1599   24.5585    3.4806 C.ar      12 UNK        -0.0894 
     11 C11        31.2343   24.9910    4.4343 C.ar      12 UNK        -0.0804 
     12 C12        30.1682   24.1578    4.7861 C.ar      12 UNK        -0.0824 
     13 C13        30.0147   22.9071    4.1783 C.ar      12 UNK        -0.0762 
     14 C14        30.9533   22.4821    3.2338 C.ar      12 UNK        -0.0782 
     15 C15        28.8402   22.0085    4.5385 C.3       12 UNK         0.0230 
     16 S16        27.4265   22.2604    3.4155 S.3       12 UNK        -0.2608 
     17 C17        26.7822   23.8673    3.9944 C.3       12 UNK        -0.0989 
     18 CA         27.1326   25.0351    3.0281 C.3       5 UNK         0.0716 
     19 N          26.5472   24.8766    1.6937 N.am      5 UNK        -0.4135 
     20 C          25.2477   24.8760    1.3742 C.2       4 UNK         0.5031 
     21 O          24.3319   25.0544    2.1806 O.2       4 UNK        -0.5229 
     22 CA         24.9383   24.6244   -0.1145 C.3       4 UNK         0.0329 
     23 CB         23.4392   24.3781   -0.3925 C.3       4 UNK        -0.2001 
     24 N          25.4706   25.6899   -0.9744 N.am      4 UNK        -0.4303 
     25 C          25.1317   26.9883   -0.9554 C.2       3 UNK         0.5044 
     26 O          24.2699   27.4664   -0.2154 O.2       3 UNK        -0.5152 
     27 CA         25.8800   27.9066   -1.9475 C.3       3 UNK         0.0319 
     28 CB         25.5947   29.4033   -1.7032 C.3       3 UNK        -0.2001 
     29 N          27.3336   27.6988   -2.0331 N.am      3 UNK        -0.4354 
     30 C          28.2110   27.6071   -1.0228 C.2       2 UNK         0.4964 
     31 O          27.9040   27.4885    0.1634 O.2       2 UNK        -0.5047 
     32 CA         29.6972   27.6702   -1.4028 C.3       2 UNK         0.0288 
     33 CB         30.4349   28.7325   -0.5687 C.3       2 UNK        -0.2113 
     34 N          30.3156   26.3689   -1.1809 N.am      2 UNK        -0.4145 
     35 C          30.2222   25.3344   -2.0269 C.2       1 UNK         0.5006 
     36 O          29.6980   25.4157   -3.1412 O.2       1 UNK        -0.5103 
     37 C          26.8534   26.4259    3.6411 C.2       5 UNK         0.5055 
     38 O          26.5807   26.5261    4.8404 O.2       5 UNK        -0.5220 
     39 N          26.9502   27.4843    2.8252 N.am      6 UNK        -0.4450 
     40 CA         26.9733   28.8706    3.2929 C.3       6 UNK         0.0367 
     41 CB         26.5825   29.8047    2.1368 C.3       6 UNK        -0.1929 
     42 C          28.3738   29.2242    3.8193 C.2       6 UNK         0.5070 
     43 O          29.3543   28.5756    3.4461 O.2       6 UNK        -0.5237 
     44 N          28.4482   30.2613    4.6648 N.am      7 UNK        -0.4739 
     45 CA         29.7057   30.7637    5.2241 C.3       7 UNK         0.0276 
     46 CB         29.4278   31.7793    6.3442 C.3       7 UNK        -0.1927 
     47 C          30.6249   31.3506    4.1434 C.2       7 UNK         0.5013 
     48 O          31.7561   30.8801    3.9997 O.2       7 UNK        -0.5193 
     49 N          30.1028   32.3346    3.3920 N.am      8 UNK        -0.4253 
     50 CA         30.7285   33.0106    2.2468 C.3       8 UNK         0.0242 
     51 CB         30.5814   32.1170    0.9931 C.3       8 UNK        -0.2000 
     52 C          32.1795   33.4428    2.5505 C.2       8 UNK         0.4948 
     53 O          32.3939   34.2117    3.4893 O.2       8 UNK        -0.5275 
     54 N          33.1379   32.8905    1.7987 N.am      9 UNK        -0.4246 
     55 CA         34.5683   32.8851    2.1100 C.3       9 UNK         0.0261 
     56 CB         35.3252   33.6477    1.0065 C.3       9 UNK        -0.1959 
     57 C          35.0815   31.4377    2.2678 C.2       9 UNK         0.5033 
     58 O          36.2881   31.2110    2.1635 O.2       9 UNK        -0.5390 
     59 N          34.1670   30.4811    2.4891 N.am      10 UNK        -0.4215 
     60 CA         34.4543   29.0534    2.6289 C.3       10 UNK         0.0240 
     61 CB         33.3187   28.2410    1.9820 C.3       10 UNK        -0.1982 
     62 C          34.6408   28.6741    4.1047 C.2       10 UNK         0.4970 
     63 O          35.6378   28.0335    4.4393 O.2       10 UNK        -0.4916 
     64 N          33.6962   29.1011    4.9509 N.am      11 UNK        -0.4279 
     65 CA         33.7355   28.9701    6.4161 C.3       11 UNK         0.1003 
     66 C          33.7273   30.3481    7.1371 C.2       11 UNK         0.5709 
     67 N          33.4543   31.4603    6.4627 N.am      11 UNK        -0.7358 
     68 O          33.9943   30.4123    8.3347 O.2       11 UNK        -0.4999 
     69 C69        32.5972   28.0626    6.9571 C.3       12 UNK        -0.0954 
     70 S70        32.6845   26.3461    6.3505 S.3       12 UNK        -0.2268 
     71 C71        31.3863   26.3607    5.0774 C.3       12 UNK         0.0203 
     72 H72        26.8062   21.9824   -1.7339 H         1 UNK         0.0888 
     73 H73        28.2038   20.9037   -1.6839 H         1 UNK         0.0888 
     74 H74        27.3741   21.3393   -0.1894 H         1 UNK         0.0888 
     75 H75        29.9943   22.1438   -2.2250 H         1 UNK         0.3017 
     76 H76        31.5421   23.7091   -2.3158 H         1 UNK         0.0873 
     77 H77        32.3045   24.7868   -0.1922 H         1 UNK         0.0745 
     78 H78        30.8182   24.2940    0.6028 H         1 UNK         0.0745 
     79 H79        33.8259   23.5904    1.7008 H         1 UNK         0.0705 
     80 H80        33.5583   21.9486    2.2341 H         1 UNK         0.0705 
     81 H81        32.9902   25.1985    3.2183 H         1 UNK         0.1334 
     82 H82        29.4527   24.4892    5.5258 H         1 UNK         0.1417 
     83 H83        30.8412   21.5151    2.7620 H         1 UNK         0.1562 
     84 H84        28.5309   22.1728    5.5719 H         1 UNK         0.0748 
     85 H85        29.1479   20.9632    4.4813 H         1 UNK         0.0748 
     86 H86        27.1721   24.0550    4.9954 H         1 UNK         0.0940 
     87 H87        25.7015   23.7832    4.1179 H         1 UNK         0.0940 
     88 H88        28.2115   25.0144    2.8672 H         1 UNK         0.0703 
     89 H89        27.2170   24.6760    0.9496 H         1 UNK         0.3081 
     90 H90        25.4666   23.7111   -0.3898 H         1 UNK         0.0719 
     91 H91        22.8244   25.2363   -0.1200 H         1 UNK         0.0809 
     92 H92        23.2618   24.1590   -1.4453 H         1 UNK         0.0809 
     93 H93        23.0748   23.5258    0.1823 H         1 UNK         0.0809 
     94 H94        26.2308   25.4182   -1.5825 H         1 UNK         0.2990 
     95 H95        25.4808   27.6580   -2.9320 H         1 UNK         0.0690 
     96 H96        26.0565   30.0254   -2.4698 H         1 UNK         0.0788 
     97 H97        25.9737   29.7310   -0.7359 H         1 UNK         0.0788 
     98 H98        24.5242   29.6120   -1.7240 H         1 UNK         0.0788 
     99 H99        27.7090   27.7117   -2.9718 H         1 UNK         0.2993 
    100 H100       29.7936   27.9434   -2.4561 H         1 UNK         0.0949 
    101 H101       30.3947   28.5149    0.5002 H         1 UNK         0.0767 
    102 H102       31.4829   28.8069   -0.8585 H         1 UNK         0.0767 
    103 H103       29.9870   29.7156   -0.7171 H         1 UNK         0.0767 
    104 H104       30.6973   26.2088   -0.2608 H         1 UNK         0.3013 
    105 H105       27.2448   27.3404    1.8594 H         1 UNK         0.3121 
    106 H106       26.2472   28.9893    4.1000 H         1 UNK         0.0774 
    107 H107       26.4813   30.8343    2.4811 H         1 UNK         0.0815 
    108 H108       27.3329   29.8009    1.3454 H         1 UNK         0.0815 
    109 H109       25.6279   29.5126    1.6983 H         1 UNK         0.0815 
    110 H110       27.6011   30.7460    4.9253 H         1 UNK         0.2987 
    111 H111       30.2292   29.9157    5.6663 H         1 UNK         0.0949 
    112 H112       28.8740   31.3209    7.1636 H         1 UNK         0.0806 
    113 H113       30.3607   32.1614    6.7619 H         1 UNK         0.0806 
    114 H114       28.8534   32.6361    5.9907 H         1 UNK         0.0806 
    115 H115       29.1725   32.6503    3.6250 H         1 UNK         0.3010 
    116 H116       30.1660   33.9292    2.0730 H         1 UNK         0.0829 
    117 H117       29.5313   31.9040    0.7915 H         1 UNK         0.0813 
    118 H118       30.9789   32.6053    0.1023 H         1 UNK         0.0813 
    119 H119       31.0866   31.1575    1.1117 H         1 UNK         0.0813 
    120 H120       32.8531   32.2911    1.0363 H         1 UNK         0.3038 
    121 H121       34.7531   33.3847    3.0633 H         1 UNK         0.0769 
    122 H122       36.3900   33.7150    1.2333 H         1 UNK         0.0811 
    123 H123       34.9535   34.6675    0.9055 H         1 UNK         0.0811 
    124 H124       35.2269   33.1571    0.0375 H         1 UNK         0.0811 
    125 H125       33.2129   30.7646    2.6909 H         1 UNK         0.3204 
    126 H126       35.3793   28.8115    2.1008 H         1 UNK         0.0748 
    127 H127       33.4982   27.1709    2.0830 H         1 UNK         0.0771 
    128 H128       32.3487   28.4588    2.4316 H         1 UNK         0.0771 
    129 H129       33.2449   28.4540    0.9158 H         1 UNK         0.0771 
    130 H130       32.9159   29.6380    4.5803 H         1 UNK         0.2980 
    131 H131       34.6815   28.5104    6.7076 H         1 UNK         0.0545 
    132 H132       33.4722   32.3419    6.9500 H         1 UNK         0.3459 
    133 H133       33.1890   31.4277    5.4897 H         1 UNK         0.3459 
    134 H134       31.6204   28.4831    6.7208 H         1 UNK         0.0616 
    135 H135       32.6423   28.0100    8.0464 H         1 UNK         0.0616 
    136 H136       30.4424   26.6807    5.5219 H         1 UNK         0.0634 
    137 H137       31.6325   27.0997    4.3147 H         1 UNK         0.0634 
@<TRIPOS>BOND
     1    1    2 1    
     2    1   72 1    
     3    1   73 1    
     4    1   74 1    
     5    2    3 2    
     6    2    4 am   BACKBONE|DICT|INTERRES
     7    4    5 1    
     8    4   75 1    
     9    5    6 1    
    10    5   35 1    
    11    5   76 1    
    12    6    7 1    
    13    6   77 1    
    14    6   78 1    
    15    7    8 1    
    16    8    9 1    
    17    8   79 1    
    18    8   80 1    
    19    9   10 ar   
    20    9   14 ar   
    21   10   11 ar   
    22   10   81 1    
    23   11   12 ar   
    24   11   71 1    
    25   12   13 ar   
    26   12   82 1    
    27   13   14 ar   
    28   13   15 1    
    29   14   83 1    
    30   15   16 1    
    31   15   84 1    
    32   15   85 1    
    33   16   17 1    
    34   17   18 1    
    35   17   86 1    
    36   17   87 1    
    37   18   19 1    
    38   18   37 1    
    39   18   88 1    
    40   19   20 am   BACKBONE|DICT|INTERRES
    41   19   89 1    
    42   20   21 2    
    43   20   22 1    
    44   22   23 1    
    45   22   24 1    
    46   22   90 1    
    47   23   91 1    
    48   23   92 1    
    49   23   93 1    
    50   24   25 am   BACKBONE|DICT|INTERRES
    51   24   94 1    
    52   25   26 2    
    53   25   27 1    
    54   27   28 1    
    55   27   29 1    
    56   27   95 1    
    57   28   96 1    
    58   28   97 1    
    59   28   98 1    
    60   29   30 am   BACKBONE|DICT|INTERRES
    61   29   99 1    
    62   30   31 2    
    63   30   32 1    
    64   32   33 1    
    65   32   34 1    
    66   32  100 1    
    67   33  101 1    
    68   33  102 1    
    69   33  103 1    
    70   34   35 am   BACKBONE|DICT|INTERRES
    71   34  104 1    
    72   35   36 2    
    73   37   38 2    
    74   37   39 am   BACKBONE|DICT|INTERRES
    75   39   40 1    
    76   39  105 1    
    77   40   41 1    
    78   40   42 1    
    79   40  106 1    
    80   41  107 1    
    81   41  108 1    
    82   41  109 1    
    83   42   43 2    
    84   42   44 am   BACKBONE|DICT|INTERRES
    85   44   45 1    
    86   44  110 1    
    87   45   46 1    
    88   45   47 1    
    89   45  111 1    
    90   46  112 1    
    91   46  113 1    
    92   46  114 1    
    93   47   48 2    
    94   47   49 am   BACKBONE|DICT|INTERRES
    95   49   50 1    
    96   49  115 1    
    97   50   51 1    
    98   50   52 1    
    99   50  116 1    
   100   51  117 1    
   101   51  118 1    
   102   51  119 1    
   103   52   53 2    
   104   52   54 am   BACKBONE|DICT|INTERRES
   105   54   55 1    
   106   54  120 1    
   107   55   56 1    
   108   55   57 1    
   109   55  121 1    
   110   56  122 1    
   111   56  123 1    
   112   56  124 1    
   113   57   58 2    
   114   57   59 am   BACKBONE|DICT|INTERRES
   115   59   60 1    
   116   59  125 1    
   117   60   61 1    
   118   60   62 1    
   119   60  126 1    
   120   61  127 1    
   121   61  128 1    
   122   61  129 1    
   123   62   63 2    
   124   62   64 am   BACKBONE|DICT|INTERRES
   125   64   65 1    
   126   64  130 1    
   127   65   66 1    
   128   65   69 1    
   129   65  131 1    
   130   66   67 am   BACKBONE|DICT|INTERRES
   131   66   68 2    
   132   67  132 1    
   133   67  133 1    
   134   69   70 1    
   135   69  134 1    
   136   69  135 1    
   137   70   71 1    
   138   71  136 1    
   139   71  137 1    
@<TRIPOS>SUBSTRUCTURE
     1 UNK         1 GROUP             0       ****    0 ROOT    
