@<TRIPOS>MOLECULE
3R136
137   139    1
SMALL
USER_CHARGES


@<TRIPOS>ATOM
      1 CA         28.3965   23.9041   -4.2180 C.3       0 UNK        -0.1979 
      2 C          28.9869   24.2006   -2.8482 C.2       0 UNK         0.4864 
      3 O          28.9429   25.3462   -2.4021 O.2       0 UNK        -0.5359 
      4 N          29.5249   23.1764   -2.1711 N.am      1 UNK        -0.4318 
      5 CA         30.1511   23.2634   -0.8434 C.3       1 UNK         0.0824 
      6 C6         30.7783   21.9025   -0.4364 C.3       12 UNK        -0.0944 
      7 S7         32.3299   22.0800    0.5035 S.3       12 UNK        -0.2672 
      8 C8         31.9752   21.1896    2.0538 C.3       12 UNK         0.0333 
      9 C9         31.8303   22.1549    3.2183 C.ar      12 UNK        -0.0807 
     10 C10        32.9747   22.6742    3.8303 C.ar      12 UNK        -0.0894 
     11 C11        32.8696   23.5904    4.8815 C.ar      12 UNK        -0.0804 
     12 C12        31.6020   23.9499    5.3475 C.ar      12 UNK        -0.0824 
     13 C13        30.4488   23.4293    4.7510 C.ar      12 UNK        -0.0762 
     14 C14        30.5674   22.5349    3.6824 C.ar      12 UNK        -0.0782 
     15 C15        29.0755   23.8461    5.2576 C.3       12 UNK         0.0230 
     16 S16        28.3262   25.1366    4.2163 S.3       12 UNK        -0.2608 
     17 C17        29.5253   26.4954    4.3982 C.3       12 UNK        -0.0989 
     18 CA         29.1962   27.7685    3.5893 C.3       5 UNK         0.0716 
     19 N          29.2559   27.5818    2.1356 N.am      5 UNK        -0.4135 
     20 C          29.4664   28.6044    1.2930 C.2       4 UNK         0.5031 
     21 O          29.6447   29.7640    1.6663 O.2       4 UNK        -0.5229 
     22 CA         29.4485   28.3133   -0.2140 C.3       4 UNK         0.0329 
     23 CB         30.7653   27.6628   -0.6647 C.3       4 UNK        -0.2001 
     24 N          28.3096   27.4930   -0.6244 N.am      4 UNK        -0.4303 
     25 C          27.0243   27.8471   -0.4791 C.2       3 UNK         0.5044 
     26 O          26.6561   28.9175    0.0026 O.2       3 UNK        -0.5152 
     27 CA         25.9682   26.8140   -0.9000 C.3       3 UNK         0.0319 
     28 CB         25.7415   26.8388   -2.4200 C.3       3 UNK        -0.2001 
     29 N          26.3208   25.4617   -0.4650 N.am      3 UNK        -0.4354 
     30 C          26.3634   25.0745    0.8183 C.2       2 UNK         0.4964 
     31 O          26.0637   25.8058    1.7609 O.2       2 UNK        -0.5047 
     32 CA         26.8446   23.6405    1.0955 C.3       2 UNK         0.0288 
     33 CB         25.6853   22.6419    0.9506 C.3       2 UNK        -0.2113 
     34 N          27.9541   23.2317    0.2323 N.am      2 UNK        -0.4145 
     35 C          29.1744   23.7921    0.2293 C.2       1 UNK         0.5006 
     36 O          29.5124   24.7148    0.9732 O.2       1 UNK        -0.5103 
     37 C          27.9117   28.4845    4.0536 C.2       5 UNK         0.5055 
     38 O          27.9911   29.2857    4.9856 O.2       5 UNK        -0.5220 
     39 N          26.7735   28.2573    3.3767 N.am      6 UNK        -0.4450 
     40 CA         25.5239   28.9951    3.6069 C.3       6 UNK         0.0367 
     41 CB         24.3763   28.3551    2.8111 C.3       6 UNK        -0.1929 
     42 C          25.6444   30.4941    3.2748 C.2       6 UNK         0.5070 
     43 O          25.0953   31.3228    4.0007 O.2       6 UNK        -0.5237 
     44 N          26.3943   30.8173    2.2127 N.am      7 UNK        -0.4739 
     45 CA         26.7528   32.1826    1.8168 C.3       7 UNK         0.0276 
     46 CB         27.1691   32.1698    0.3359 C.3       7 UNK        -0.1927 
     47 C          27.8699   32.8062    2.6783 C.2       7 UNK         0.5013 
     48 O          28.1486   33.9946    2.5137 O.2       7 UNK        -0.5193 
     49 N          28.5026   32.0034    3.5491 N.am      8 UNK        -0.4253 
     50 CA         29.6679   32.3203    4.3852 C.3       8 UNK         0.0242 
     51 CB         29.3251   33.4006    5.4330 C.3       8 UNK        -0.2000 
     52 C          30.9328   32.6523    3.5662 C.2       8 UNK         0.4948 
     53 O          31.7811   33.4183    4.0269 O.2       8 UNK        -0.5275 
     54 N          31.0469   32.0551    2.3730 N.am      9 UNK        -0.4246 
     55 CA         32.1885   32.1795    1.4661 C.3       9 UNK         0.0261 
     56 CB         31.6787   32.0801    0.0181 C.3       9 UNK        -0.1959 
     57 C          33.2648   31.1114    1.7308 C.2       9 UNK         0.5033 
     58 O          34.3748   31.2426    1.2124 O.2       9 UNK        -0.5390 
     59 N          32.9303   30.0803    2.5157 N.am      10 UNK        -0.4215 
     60 CA         33.8071   28.9847    2.9167 C.3       10 UNK         0.0240 
     61 CB         33.6006   27.8046    1.9483 C.3       10 UNK        -0.1982 
     62 C          33.4583   28.5772    4.3597 C.2       10 UNK         0.4970 
     63 O          32.3376   28.8494    4.7917 O.2       10 UNK        -0.4916 
     64 N          34.3507   27.9197    5.1125 N.am      11 UNK        -0.4279 
     65 CA         35.7626   27.6167    4.8041 C.3       11 UNK         0.1003 
     66 C          36.7573   28.6641    5.3856 C.2       11 UNK         0.5709 
     67 N          36.3048   29.6993    6.0838 N.am      11 UNK        -0.7358 
     68 O          37.9629   28.5495    5.1792 O.2       11 UNK        -0.4999 
     69 C69        36.1378   26.1722    5.2299 C.3       12 UNK        -0.0954 
     70 S70        35.2144   24.9382    4.2572 S.3       12 UNK        -0.2268 
     71 C71        34.1163   24.2016    5.5105 C.3       12 UNK         0.0203 
     72 H72        27.3377   24.1608   -4.2336 H         1 UNK         0.0888 
     73 H73        28.9020   24.4987   -4.9784 H         1 UNK         0.0888 
     74 H74        28.4959   22.8528   -4.4874 H         1 UNK         0.0888 
     75 H75        29.5306   22.2611   -2.5986 H         1 UNK         0.3017 
     76 H76        30.9485   24.0039   -0.9387 H         1 UNK         0.0873 
     77 H77        31.0495   21.3340   -1.3277 H         1 UNK         0.0745 
     78 H78        30.0646   21.2693    0.0933 H         1 UNK         0.0745 
     79 H79        32.8004   20.5046    2.2550 H         1 UNK         0.0705 
     80 H80        31.0880   20.5628    1.9581 H         1 UNK         0.0705 
     81 H81        33.9517   22.3867    3.4660 H         1 UNK         0.1334 
     82 H82        31.5093   24.6524    6.1646 H         1 UNK         0.1417 
     83 H83        29.6768   22.1460    3.2077 H         1 UNK         0.1562 
     84 H84        29.1356   24.2038    6.2866 H         1 UNK         0.0748 
     85 H85        28.4135   22.9792    5.2752 H         1 UNK         0.0748 
     86 H86        30.5069   26.1380    4.0850 H         1 UNK         0.0940 
     87 H87        29.6209   26.7384    5.4582 H         1 UNK         0.0940 
     88 H88        29.9994   28.4657    3.8320 H         1 UNK         0.0703 
     89 H89        29.1402   26.6379    1.7784 H         1 UNK         0.3081 
     90 H90        29.3555   29.2713   -0.7297 H         1 UNK         0.0719 
     91 H91        30.7827   27.5119   -1.7442 H         1 UNK         0.0809 
     92 H92        31.6172   28.2951   -0.4117 H         1 UNK         0.0809 
     93 H93        30.9238   26.6938   -0.1908 H         1 UNK         0.0809 
     94 H94        28.5231   26.6117   -1.0877 H         1 UNK         0.2990 
     95 H95        25.0274   27.0859   -0.4167 H         1 UNK         0.0690 
     96 H96        25.4357   27.8329   -2.7489 H         1 UNK         0.0788 
     97 H97        24.9547   26.1446   -2.7155 H         1 UNK         0.0788 
     98 H98        26.6444   26.5790   -2.9729 H         1 UNK         0.0788 
     99 H99        26.6196   24.8143   -1.1787 H         1 UNK         0.2993 
    100 H100       27.1958   23.6000    2.1267 H         1 UNK         0.0949 
    101 H101       25.3027   22.6080   -0.0703 H         1 UNK         0.0767 
    102 H102       25.9931   21.6338    1.2288 H         1 UNK         0.0767 
    103 H103       24.8537   22.9157    1.6017 H         1 UNK         0.0767 
    104 H104       27.7662   22.4925   -0.4290 H         1 UNK         0.3013 
    105 H105       26.7552   27.5369    2.6611 H         1 UNK         0.3121 
    106 H106       25.2836   28.9133    4.6691 H         1 UNK         0.0774 
    107 H107       24.5727   28.3668    1.7389 H         1 UNK         0.0815 
    108 H108       23.4398   28.8889    2.9777 H         1 UNK         0.0815 
    109 H109       24.2157   27.3196    3.1114 H         1 UNK         0.0815 
    110 H110       26.7411   30.0697    1.6171 H         1 UNK         0.2987 
    111 H111       25.8708   32.8182    1.9209 H         1 UNK         0.0949 
    112 H112       28.0520   31.5504    0.1723 H         1 UNK         0.0806 
    113 H113       26.3697   31.7846   -0.2974 H         1 UNK         0.0806 
    114 H114       27.4052   33.1748   -0.0164 H         1 UNK         0.0806 
    115 H115       28.1829   31.0445    3.6067 H         1 UNK         0.3010 
    116 H116       29.9010   31.4027    4.9279 H         1 UNK         0.0829 
    117 H117       28.4336   33.1331    6.0003 H         1 UNK         0.0813 
    118 H118       30.1386   33.5226    6.1492 H         1 UNK         0.0813 
    119 H119       29.1516   34.3732    4.9718 H         1 UNK         0.0813 
    120 H120       30.3321   31.3827    2.0952 H         1 UNK         0.3038 
    121 H121       32.6533   33.1587    1.5991 H         1 UNK         0.0769 
    122 H122       31.2296   31.1077   -0.1867 H         1 UNK         0.0811 
    123 H123       32.4938   32.2188   -0.6934 H         1 UNK         0.0811 
    124 H124       30.9310   32.8451   -0.1921 H         1 UNK         0.0811 
    125 H125       32.0168   30.0701    2.9510 H         1 UNK         0.3204 
    126 H126       34.8389   29.3358    2.8773 H         1 UNK         0.0748 
    127 H127       32.5717   27.4422    1.9716 H         1 UNK         0.0771 
    128 H128       33.8318   28.0901    0.9220 H         1 UNK         0.0771 
    129 H129       34.2443   26.9622    2.2000 H         1 UNK         0.0771 
    130 H130       34.0662   27.6607    6.0447 H         1 UNK         0.2980 
    131 H131       35.9245   27.6577    3.7283 H         1 UNK         0.0545 
    132 H132       36.9621   30.3723    6.4460 H         1 UNK         0.3459 
    133 H133       35.3195   29.8132    6.2598 H         1 UNK         0.3459 
    134 H134       37.1984   25.9795    5.0583 H         1 UNK         0.0616 
    135 H135       35.9707   26.0220    6.2977 H         1 UNK         0.0616 
    136 H136       33.8342   24.9691    6.2326 H         1 UNK         0.0634 
    137 H137       34.6613   23.4345    6.0619 H         1 UNK         0.0634 
@<TRIPOS>BOND
     1    1    2 1    
     2    1   72 1    
     3    1   73 1    
     4    1   74 1    
     5    2    3 2    
     6    2    4 am   BACKBONE|DICT|INTERRES
     7    4    5 1    
     8    4   75 1    
     9    5    6 1    
    10    5   35 1    
    11    5   76 1    
    12    6    7 1    
    13    6   77 1    
    14    6   78 1    
    15    7    8 1    
    16    8    9 1    
    17    8   79 1    
    18    8   80 1    
    19    9   10 ar   
    20    9   14 ar   
    21   10   11 ar   
    22   10   81 1    
    23   11   12 ar   
    24   11   71 1    
    25   12   13 ar   
    26   12   82 1    
    27   13   14 ar   
    28   13   15 1    
    29   14   83 1    
    30   15   16 1    
    31   15   84 1    
    32   15   85 1    
    33   16   17 1    
    34   17   18 1    
    35   17   86 1    
    36   17   87 1    
    37   18   19 1    
    38   18   37 1    
    39   18   88 1    
    40   19   20 am   BACKBONE|DICT|INTERRES
    41   19   89 1    
    42   20   21 2    
    43   20   22 1    
    44   22   23 1    
    45   22   24 1    
    46   22   90 1    
    47   23   91 1    
    48   23   92 1    
    49   23   93 1    
    50   24   25 am   BACKBONE|DICT|INTERRES
    51   24   94 1    
    52   25   26 2    
    53   25   27 1    
    54   27   28 1    
    55   27   29 1    
    56   27   95 1    
    57   28   96 1    
    58   28   97 1    
    59   28   98 1    
    60   29   30 am   BACKBONE|DICT|INTERRES
    61   29   99 1    
    62   30   31 2    
    63   30   32 1    
    64   32   33 1    
    65   32   34 1    
    66   32  100 1    
    67   33  101 1    
    68   33  102 1    
    69   33  103 1    
    70   34   35 am   BACKBONE|DICT|INTERRES
    71   34  104 1    
    72   35   36 2    
    73   37   38 2    
    74   37   39 am   BACKBONE|DICT|INTERRES
    75   39   40 1    
    76   39  105 1    
    77   40   41 1    
    78   40   42 1    
    79   40  106 1    
    80   41  107 1    
    81   41  108 1    
    82   41  109 1    
    83   42   43 2    
    84   42   44 am   BACKBONE|DICT|INTERRES
    85   44   45 1    
    86   44  110 1    
    87   45   46 1    
    88   45   47 1    
    89   45  111 1    
    90   46  112 1    
    91   46  113 1    
    92   46  114 1    
    93   47   48 2    
    94   47   49 am   BACKBONE|DICT|INTERRES
    95   49   50 1    
    96   49  115 1    
    97   50   51 1    
    98   50   52 1    
    99   50  116 1    
   100   51  117 1    
   101   51  118 1    
   102   51  119 1    
   103   52   53 2    
   104   52   54 am   BACKBONE|DICT|INTERRES
   105   54   55 1    
   106   54  120 1    
   107   55   56 1    
   108   55   57 1    
   109   55  121 1    
   110   56  122 1    
   111   56  123 1    
   112   56  124 1    
   113   57   58 2    
   114   57   59 am   BACKBONE|DICT|INTERRES
   115   59   60 1    
   116   59  125 1    
   117   60   61 1    
   118   60   62 1    
   119   60  126 1    
   120   61  127 1    
   121   61  128 1    
   122   61  129 1    
   123   62   63 2    
   124   62   64 am   BACKBONE|DICT|INTERRES
   125   64   65 1    
   126   64  130 1    
   127   65   66 1    
   128   65   69 1    
   129   65  131 1    
   130   66   67 am   BACKBONE|DICT|INTERRES
   131   66   68 2    
   132   67  132 1    
   133   67  133 1    
   134   69   70 1    
   135   69  134 1    
   136   69  135 1    
   137   70   71 1    
   138   71  136 1    
   139   71  137 1    
@<TRIPOS>SUBSTRUCTURE
     1 UNK         1 GROUP             0       ****    0 ROOT    
