@<TRIPOS>MOLECULE
3R136
137   139    1
SMALL
USER_CHARGES


@<TRIPOS>ATOM
      1 CA         32.5617   25.2763    1.5533 C.3       0 UNK        -0.1979 
      2 C          32.5442   24.6398    0.1680 C.2       0 UNK         0.4864 
      3 O          33.5454   24.7166   -0.5418 O.2       0 UNK        -0.5359 
      4 N          31.4446   24.0122   -0.2719 N.am      1 UNK        -0.4318 
      5 CA         30.1611   23.8475    0.4282 C.3       1 UNK         0.0824 
      6 C6         29.7927   22.3501    0.6385 C.3       12 UNK        -0.0944 
      7 S7         31.0902   21.3504    1.4492 S.3       12 UNK        -0.2672 
      8 C8         30.4911   21.2374    3.1661 C.3       12 UNK         0.0333 
      9 C9         30.8145   22.5065    3.9364 C.ar      12 UNK        -0.0807 
     10 C10        32.0797   22.6708    4.5100 C.ar      12 UNK        -0.0894 
     11 C11        32.4152   23.8645    5.1551 C.ar      12 UNK        -0.0804 
     12 C12        31.4684   24.8900    5.2361 C.ar      12 UNK        -0.0824 
     13 C13        30.1975   24.7305    4.6774 C.ar      12 UNK        -0.0762 
     14 C14        29.8697   23.5314    4.0392 C.ar      12 UNK        -0.0782 
     15 C15        29.2050   25.8786    4.7149 C.3       12 UNK         0.0230 
     16 S16        29.6672   27.1270    3.4808 S.3       12 UNK        -0.2608 
     17 C17        28.2674   28.2863    3.5836 C.3       12 UNK        -0.0989 
     18 CA         27.4496   28.2742    2.2672 C.3       5 UNK         0.0716 
     19 N          26.8175   26.9884    1.9614 N.am      5 UNK        -0.4135 
     20 C          25.8585   26.3618    2.6559 C.2       4 UNK         0.5031 
     21 O          25.4052   26.7614    3.7295 O.2       4 UNK        -0.5229 
     22 CA         25.3316   25.0530    2.0329 C.3       4 UNK         0.0329 
     23 CB         23.9834   24.5919    2.6274 C.3       4 UNK        -0.2001 
     24 N          25.2836   25.1103    0.5655 N.am      4 UNK        -0.4303 
     25 C          24.5221   25.9130   -0.1954 C.2       3 UNK         0.5044 
     26 O          23.6653   26.6779    0.2493 O.2       3 UNK        -0.5152 
     27 CA         24.8068   25.8684   -1.7122 C.3       3 UNK         0.0319 
     28 CB         24.0898   26.9821   -2.5014 C.3       3 UNK        -0.2001 
     29 N          26.2414   25.8586   -2.0323 N.am      3 UNK        -0.4354 
     30 C          27.1727   26.7396   -1.6339 C.2       2 UNK         0.4964 
     31 O          26.9389   27.7323   -0.9402 O.2       2 UNK        -0.5047 
     32 CA         28.6221   26.4295   -2.0548 C.3       2 UNK         0.0288 
     33 CB         29.3942   27.7284   -2.3514 C.3       2 UNK        -0.2113 
     34 N          29.4097   25.6403   -1.0932 N.am      2 UNK        -0.4145 
     35 C          29.0389   24.5957   -0.3306 C.2       1 UNK         0.5006 
     36 O          27.8790   24.1944   -0.2277 O.2       1 UNK        -0.5103 
     37 C          26.4380   29.4296    2.1520 C.2       5 UNK         0.5055 
     38 O          26.2453   30.1951    3.0996 O.2       5 UNK        -0.5220 
     39 N          25.8245   29.5406    0.9648 N.am      6 UNK        -0.4450 
     40 CA         25.0967   30.7365    0.5332 C.3       6 UNK         0.0367 
     41 CB         24.1808   30.3918   -0.6500 C.3       6 UNK        -0.1929 
     42 C          26.0806   31.8555    0.1479 C.2       6 UNK         0.5070 
     43 O          25.8117   33.0263    0.4184 O.2       6 UNK        -0.5237 
     44 N          27.2179   31.4647   -0.4452 N.am      7 UNK        -0.4739 
     45 CA         28.3983   32.3087   -0.6247 C.3       7 UNK         0.0276 
     46 CB         29.2610   31.7194   -1.7529 C.3       7 UNK        -0.1927 
     47 C          29.2020   32.3751    0.6850 C.2       7 UNK         0.5013 
     48 O          29.0926   31.4713    1.5187 O.2       7 UNK        -0.5193 
     49 N          30.0310   33.4169    0.8293 N.am      8 UNK        -0.4253 
     50 CA         30.8657   33.6910    2.0069 C.3       8 UNK         0.0242 
     51 CB         31.2568   35.1815    1.9997 C.3       8 UNK        -0.2000 
     52 C          32.0910   32.7568    2.1360 C.2       8 UNK         0.4948 
     53 O          33.2176   33.2320    2.2952 O.2       8 UNK        -0.5275 
     54 N          31.8504   31.4443    2.0654 N.am      9 UNK        -0.4246 
     55 CA         32.8223   30.3846    2.3235 C.3       9 UNK         0.0261 
     56 CB         32.4171   29.1408    1.5149 C.3       9 UNK        -0.1959 
     57 C          32.8839   30.0680    3.8278 C.2       9 UNK         0.5033 
     58 O          31.9347   30.3578    4.5616 O.2       9 UNK        -0.5390 
     59 N          33.9937   29.4598    4.2562 N.am      10 UNK        -0.4215 
     60 CA         34.2469   29.0245    5.6272 C.3       10 UNK         0.0240 
     61 CB         34.7687   30.2052    6.4681 C.3       10 UNK        -0.1982 
     62 C          35.2595   27.8748    5.5977 C.2       10 UNK         0.4970 
     63 O          35.9714   27.7151    4.6022 O.2       10 UNK        -0.4916 
     64 N          35.3071   27.1032    6.6888 N.am      11 UNK        -0.4279 
     65 CA         36.1927   25.9363    6.8490 C.3       11 UNK         0.1003 
     66 C          37.6530   26.2834    7.2623 C.2       11 UNK         0.5709 
     67 N          37.9846   27.5349    7.5576 N.am      11 UNK        -0.7358 
     68 O          38.5055   25.3995    7.3054 O.2       11 UNK        -0.4999 
     69 C69        35.5777   24.8649    7.7953 C.3       12 UNK        -0.0954 
     70 S70        33.8275   24.4388    7.4767 S.3       12 UNK        -0.2268 
     71 C71        33.8218   24.0829    5.6904 C.3       12 UNK         0.0203 
     72 H72        33.5354   25.7176    1.7645 H         1 UNK         0.0888 
     73 H73        31.8130   26.0634    1.6295 H         1 UNK         0.0888 
     74 H74        32.3660   24.5276    2.3186 H         1 UNK         0.0888 
     75 H75        31.4778   23.5907   -1.1900 H         1 UNK         0.3017 
     76 H76        30.1953   24.3164    1.4102 H         1 UNK         0.0873 
     77 H77        29.5839   21.8787   -0.3238 H         1 UNK         0.0745 
     78 H78        28.8709   22.2599    1.2161 H         1 UNK         0.0745 
     79 H79        30.9710   20.3851    3.6494 H         1 UNK         0.0705 
     80 H80        29.4200   21.0303    3.1813 H         1 UNK         0.0705 
     81 H81        32.8146   21.8826    4.4172 H         1 UNK         0.1334 
     82 H82        31.7312   25.8267    5.7089 H         1 UNK         0.1417 
     83 H83        28.8940   23.4104    3.5887 H         1 UNK         0.1562 
     84 H84        29.1927   26.3307    5.7078 H         1 UNK         0.0748 
     85 H85        28.1928   25.5224    4.5176 H         1 UNK         0.0748 
     86 H86        28.6861   29.2793    3.7611 H         1 UNK         0.0940 
     87 H87        27.6385   28.0625    4.4465 H         1 UNK         0.0940 
     88 H88        28.1616   28.4496    1.4581 H         1 UNK         0.0703 
     89 H89        27.0706   26.5977    1.0651 H         1 UNK         0.3081 
     90 H90        26.0721   24.2895    2.2764 H         1 UNK         0.0719 
     91 H91        23.2026   25.3415    2.4958 H         1 UNK         0.0809 
     92 H92        23.6419   23.6656    2.1658 H         1 UNK         0.0809 
     93 H93        24.0737   24.4055    3.6982 H         1 UNK         0.0809 
     94 H94        26.0091   24.5721    0.0965 H         1 UNK         0.2990 
     95 H95        24.4071   24.9144   -2.0593 H         1 UNK         0.0690 
     96 H96        24.2309   26.8584   -3.5750 H         1 UNK         0.0788 
     97 H97        24.4620   27.9675   -2.2294 H         1 UNK         0.0788 
     98 H98        23.0153   26.9726   -2.3138 H         1 UNK         0.0788 
     99 H99        26.5563   25.0514   -2.5532 H         1 UNK         0.2993 
    100 H100       28.5791   25.8547   -2.9818 H         1 UNK         0.0949 
    101 H101       30.3588   27.5224   -2.8157 H         1 UNK         0.0767 
    102 H102       28.8384   28.3710   -3.0362 H         1 UNK         0.0767 
    103 H103       29.5763   28.3011   -1.4411 H         1 UNK         0.0767 
    104 H104       30.3938   25.8643   -1.0781 H         1 UNK         0.3013 
    105 H105       26.0467   28.8523    0.2477 H         1 UNK         0.3121 
    106 H106       24.4759   31.0900    1.3593 H         1 UNK         0.0774 
    107 H107       23.5505   31.2426   -0.9112 H         1 UNK         0.0815 
    108 H108       24.7555   30.1307   -1.5388 H         1 UNK         0.0815 
    109 H109       23.5205   29.5569   -0.4135 H         1 UNK         0.0815 
    110 H110       27.3537   30.4751   -0.5936 H         1 UNK         0.2987 
    111 H111       28.0821   33.3169   -0.9020 H         1 UNK         0.0949 
    112 H112       29.6440   30.7318   -1.4944 H         1 UNK         0.0806 
    113 H113       28.6949   31.6276   -2.6800 H         1 UNK         0.0806 
    114 H114       30.1216   32.3558   -1.9624 H         1 UNK         0.0806 
    115 H115       30.0979   34.0855    0.0751 H         1 UNK         0.3010 
    116 H116       30.2559   33.5190    2.8968 H         1 UNK         0.0829 
    117 H117       30.3763   35.8240    1.9798 H         1 UNK         0.0813 
    118 H118       31.8225   35.4430    2.8951 H         1 UNK         0.0813 
    119 H119       31.8764   35.4318    1.1376 H         1 UNK         0.0813 
    120 H120       30.8771   31.1614    1.9772 H         1 UNK         0.3038 
    121 H121       33.8110   30.7112    1.9937 H         1 UNK         0.0769 
    122 H122       33.1145   28.3191    1.6799 H         1 UNK         0.0811 
    123 H123       32.4109   29.3497    0.4450 H         1 UNK         0.0811 
    124 H124       31.4226   28.7894    1.7900 H         1 UNK         0.0811 
    125 H125       34.7170   29.1910    3.5993 H         1 UNK         0.3204 
    126 H126       33.3175   28.6469    6.0598 H         1 UNK         0.0748 
    127 H127       34.9592   29.9039    7.4988 H         1 UNK         0.0771 
    128 H128       35.6998   30.6054    6.0649 H         1 UNK         0.0771 
    129 H129       34.0437   31.0188    6.5017 H         1 UNK         0.0771 
    130 H130       34.6996   27.3051    7.4693 H         1 UNK         0.2980 
    131 H131       36.3023   25.4694    5.8694 H         1 UNK         0.0545 
    132 H132       37.2967   28.2691    7.5214 H         1 UNK         0.3459 
    133 H133       38.9353   27.7446    7.8186 H         1 UNK         0.3459 
    134 H134       35.6407   25.2026    8.8314 H         1 UNK         0.0616 
    135 H135       36.1576   23.9415    7.7443 H         1 UNK         0.0616 
    136 H136       34.4565   23.2164    5.4989 H         1 UNK         0.0634 
    137 H137       34.2516   24.9168    5.1370 H         1 UNK         0.0634 
@<TRIPOS>BOND
     1    1    2 1    
     2    1   72 1    
     3    1   73 1    
     4    1   74 1    
     5    2    3 2    
     6    2    4 am   BACKBONE|DICT|INTERRES
     7    4    5 1    
     8    4   75 1    
     9    5    6 1    
    10    5   35 1    
    11    5   76 1    
    12    6    7 1    
    13    6   77 1    
    14    6   78 1    
    15    7    8 1    
    16    8    9 1    
    17    8   79 1    
    18    8   80 1    
    19    9   10 ar   
    20    9   14 ar   
    21   10   11 ar   
    22   10   81 1    
    23   11   12 ar   
    24   11   71 1    
    25   12   13 ar   
    26   12   82 1    
    27   13   14 ar   
    28   13   15 1    
    29   14   83 1    
    30   15   16 1    
    31   15   84 1    
    32   15   85 1    
    33   16   17 1    
    34   17   18 1    
    35   17   86 1    
    36   17   87 1    
    37   18   19 1    
    38   18   37 1    
    39   18   88 1    
    40   19   20 am   BACKBONE|DICT|INTERRES
    41   19   89 1    
    42   20   21 2    
    43   20   22 1    
    44   22   23 1    
    45   22   24 1    
    46   22   90 1    
    47   23   91 1    
    48   23   92 1    
    49   23   93 1    
    50   24   25 am   BACKBONE|DICT|INTERRES
    51   24   94 1    
    52   25   26 2    
    53   25   27 1    
    54   27   28 1    
    55   27   29 1    
    56   27   95 1    
    57   28   96 1    
    58   28   97 1    
    59   28   98 1    
    60   29   30 am   BACKBONE|DICT|INTERRES
    61   29   99 1    
    62   30   31 2    
    63   30   32 1    
    64   32   33 1    
    65   32   34 1    
    66   32  100 1    
    67   33  101 1    
    68   33  102 1    
    69   33  103 1    
    70   34   35 am   BACKBONE|DICT|INTERRES
    71   34  104 1    
    72   35   36 2    
    73   37   38 2    
    74   37   39 am   BACKBONE|DICT|INTERRES
    75   39   40 1    
    76   39  105 1    
    77   40   41 1    
    78   40   42 1    
    79   40  106 1    
    80   41  107 1    
    81   41  108 1    
    82   41  109 1    
    83   42   43 2    
    84   42   44 am   BACKBONE|DICT|INTERRES
    85   44   45 1    
    86   44  110 1    
    87   45   46 1    
    88   45   47 1    
    89   45  111 1    
    90   46  112 1    
    91   46  113 1    
    92   46  114 1    
    93   47   48 2    
    94   47   49 am   BACKBONE|DICT|INTERRES
    95   49   50 1    
    96   49  115 1    
    97   50   51 1    
    98   50   52 1    
    99   50  116 1    
   100   51  117 1    
   101   51  118 1    
   102   51  119 1    
   103   52   53 2    
   104   52   54 am   BACKBONE|DICT|INTERRES
   105   54   55 1    
   106   54  120 1    
   107   55   56 1    
   108   55   57 1    
   109   55  121 1    
   110   56  122 1    
   111   56  123 1    
   112   56  124 1    
   113   57   58 2    
   114   57   59 am   BACKBONE|DICT|INTERRES
   115   59   60 1    
   116   59  125 1    
   117   60   61 1    
   118   60   62 1    
   119   60  126 1    
   120   61  127 1    
   121   61  128 1    
   122   61  129 1    
   123   62   63 2    
   124   62   64 am   BACKBONE|DICT|INTERRES
   125   64   65 1    
   126   64  130 1    
   127   65   66 1    
   128   65   69 1    
   129   65  131 1    
   130   66   67 am   BACKBONE|DICT|INTERRES
   131   66   68 2    
   132   67  132 1    
   133   67  133 1    
   134   69   70 1    
   135   69  134 1    
   136   69  135 1    
   137   70   71 1    
   138   71  136 1    
   139   71  137 1    
@<TRIPOS>SUBSTRUCTURE
     1 UNK         1 GROUP             0       ****    0 ROOT    
