@<TRIPOS>MOLECULE
3R136
137   139    1
SMALL
USER_CHARGES


@<TRIPOS>ATOM
      1 CA         27.0843   23.5156    6.0995 C.3       0 UNK        -0.1979 
      2 C          27.0107   23.8164    4.6102 C.2       0 UNK         0.4864 
      3 O          25.9359   23.7328    4.0173 O.2       0 UNK        -0.5359 
      4 N          28.1391   24.2026    4.0037 N.am      1 UNK        -0.4318 
      5 CA         28.3221   24.5468    2.5834 C.3       1 UNK         0.0824 
      6 C6         29.8034   24.3539    2.1579 C.3       12 UNK        -0.0944 
      7 S7         31.0056   25.0839    3.3292 S.3       12 UNK        -0.2672 
      8 C8         32.4823   24.0628    3.0294 C.3       12 UNK         0.0333 
      9 C9         33.1790   24.5022    1.7537 C.ar      12 UNK        -0.0807 
     10 C10        34.1358   25.5182    1.7962 C.ar      12 UNK        -0.0894 
     11 C11        34.7210   25.9955    0.6213 C.ar      12 UNK        -0.0804 
     12 C12        34.3430   25.4452   -0.6066 C.ar      12 UNK        -0.0824 
     13 C13        33.3760   24.4350   -0.6609 C.ar      12 UNK        -0.0762 
     14 C14        32.8224   23.9436    0.5247 C.ar      12 UNK        -0.0782 
     15 C15        32.8453   23.9511   -2.0034 C.3       12 UNK         0.0230 
     16 S16        31.0850   24.3918   -2.2325 S.3       12 UNK        -0.2608 
     17 C17        31.0455   26.1063   -1.6004 C.3       12 UNK        -0.0989 
     18 CA         29.8852   26.9676   -2.1511 C.3       5 UNK         0.0716 
     19 N          28.5571   26.4343   -1.8456 N.am      5 UNK        -0.4135 
     20 C          27.7589   25.8416   -2.7442 C.2       4 UNK         0.5031 
     21 O          28.0761   25.6048   -3.9112 O.2       4 UNK        -0.5229 
     22 CA         26.3422   25.4790   -2.2721 C.3       4 UNK         0.0329 
     23 CB         26.3596   24.1795   -1.4502 C.3       4 UNK        -0.2001 
     24 N          25.7211   26.5442   -1.4855 N.am      4 UNK        -0.4303 
     25 C          25.4624   27.7918   -1.9008 C.2       3 UNK         0.5044 
     26 O          25.6513   28.1805   -3.0537 O.2       3 UNK        -0.5152 
     27 CA         24.9275   28.7927   -0.8577 C.3       3 UNK         0.0319 
     28 CB         23.3883   28.8641   -0.8910 C.3       3 UNK        -0.2001 
     29 N          25.4323   28.5818    0.5082 N.am      3 UNK        -0.4354 
     30 C          25.1960   27.5590    1.3401 C.2       2 UNK         0.4964 
     31 O          24.4688   26.6001    1.0741 O.2       2 UNK        -0.5047 
     32 CA         25.9303   27.5887    2.6840 C.3       2 UNK         0.0288 
     33 CB         24.9376   27.7868    3.8402 C.3       2 UNK        -0.2113 
     34 N          26.6888   26.3609    2.9000 N.am      2 UNK        -0.4145 
     35 C          27.7317   25.9252    2.1780 C.2       1 UNK         0.5006 
     36 O          28.2018   26.5482    1.2168 O.2       1 UNK        -0.5103 
     37 C          30.0110   28.4060   -1.6256 C.2       5 UNK         0.5055 
     38 O          30.4304   29.2814   -2.3848 O.2       5 UNK        -0.5220 
     39 N          29.6838   28.6305   -0.3446 N.am      6 UNK        -0.4450 
     40 CA         29.9243   29.8977    0.3442 C.3       6 UNK         0.0367 
     41 CB         31.4027   29.9811    0.7913 C.3       6 UNK        -0.1929 
     42 C          28.9065   30.0564    1.4801 C.2       6 UNK         0.5070 
     43 O          27.7079   30.1164    1.2019 O.2       6 UNK        -0.5237 
     44 N          29.3885   30.1265    2.7243 N.am      7 UNK        -0.4739 
     45 CA         28.6007   30.1639    3.9533 C.3       7 UNK         0.0276 
     46 CB         29.0597   31.3746    4.7844 C.3       7 UNK        -0.1927 
     47 C          28.8419   28.8653    4.7353 C.2       7 UNK         0.5013 
     48 O          29.8093   28.1530    4.4614 O.2       7 UNK        -0.5193 
     49 N          28.0058   28.6053    5.7509 N.am      8 UNK        -0.4253 
     50 CA         28.1700   27.4769    6.6814 C.3       8 UNK         0.0242 
     51 CB         26.9394   27.3774    7.5973 C.3       8 UNK        -0.2000 
     52 C          29.4643   27.5504    7.5188 C.2       8 UNK         0.4948 
     53 O          29.9486   26.5168    7.9784 O.2       8 UNK        -0.5275 
     54 N          30.0180   28.7629    7.6603 N.am      9 UNK        -0.4246 
     55 CA         31.3242   29.0552    8.2527 C.3       9 UNK         0.0261 
     56 CB         31.2881   30.4837    8.8271 C.3       9 UNK        -0.1959 
     57 C          32.5028   28.8765    7.2678 C.2       9 UNK         0.5033 
     58 O          33.6083   29.3141    7.5919 O.2       9 UNK        -0.5390 
     59 N          32.2627   28.2539    6.1021 N.am      10 UNK        -0.4215 
     60 CA         33.1941   28.0203    4.9934 C.3       10 UNK         0.0240 
     61 CB         34.4708   27.2769    5.4600 C.3       10 UNK        -0.1982 
     62 C          33.4661   29.3052    4.1886 C.2       10 UNK         0.4970 
     63 O          32.6664   30.2433    4.2341 O.2       10 UNK        -0.4916 
     64 N          34.5645   29.3044    3.4252 N.am      11 UNK        -0.4279 
     65 CA         34.9898   30.4121    2.5532 C.3       11 UNK         0.1003 
     66 C          35.7124   31.5740    3.2971 C.2       11 UNK         0.5709 
     67 N          35.9714   31.4805    4.5963 N.am      11 UNK        -0.7358 
     68 O          36.0362   32.5884    2.6839 O.2       11 UNK        -0.4999 
     69 C69        35.8244   29.8998    1.3471 C.3       12 UNK        -0.0954 
     70 S70        34.8904   28.7213    0.3125 S.3       12 UNK        -0.2268 
     71 C71        35.7169   27.1423    0.6809 C.3       12 UNK         0.0203 
     72 H72        26.8094   22.4779    6.2863 H         1 UNK         0.0888 
     73 H73        26.3926   24.1558    6.6465 H         1 UNK         0.0888 
     74 H74        28.0849   23.6796    6.4998 H         1 UNK         0.0888 
     75 H75        28.9870   24.2864    4.5483 H         1 UNK         0.3017 
     76 H76        27.7383   23.8263    2.0066 H         1 UNK         0.0873 
     77 H77        29.9936   24.7363    1.1545 H         1 UNK         0.0745 
     78 H78        30.0040   23.2834    2.0976 H         1 UNK         0.0745 
     79 H79        33.1602   24.1678    3.8780 H         1 UNK         0.0705 
     80 H80        32.2121   23.0069    2.9826 H         1 UNK         0.0705 
     81 H81        34.3981   25.9599    2.7442 H         1 UNK         0.1334 
     82 H82        34.7646   25.8418   -1.5203 H         1 UNK         0.1417 
     83 H83        32.0593   23.1785    0.4812 H         1 UNK         0.1562 
     84 H84        32.9581   22.8685   -2.0737 H         1 UNK         0.0748 
     85 H85        33.4239   24.3771   -2.8246 H         1 UNK         0.0748 
     86 H86        31.9961   26.5800   -1.8548 H         1 UNK         0.0940 
     87 H87        31.0111   26.0673   -0.5102 H         1 UNK         0.0940 
     88 H88        30.0111   27.0305   -3.2343 H         1 UNK         0.0703 
     89 H89        28.2138   26.5746   -0.9028 H         1 UNK         0.3081 
     90 H90        25.7238   25.3193   -3.1578 H         1 UNK         0.0719 
     91 H91        26.9419   24.2867   -0.5345 H         1 UNK         0.0809 
     92 H92        25.3513   23.8723   -1.1722 H         1 UNK         0.0809 
     93 H93        26.8009   23.3627   -2.0231 H         1 UNK         0.0809 
     94 H94        25.4515   26.3191   -0.5325 H         1 UNK         0.2990 
     95 H95        25.3061   29.7726   -1.1530 H         1 UNK         0.0690 
     96 H96        23.0110   29.6120   -0.1937 H         1 UNK         0.0788 
     97 H97        22.9275   27.9082   -0.6406 H         1 UNK         0.0788 
     98 H98        23.0352   29.1405   -1.8854 H         1 UNK         0.0788 
     99 H99        26.1339   29.2619    0.8021 H         1 UNK         0.2993 
    100 H100       26.6365   28.4136    2.6906 H         1 UNK         0.0949 
    101 H101       24.3757   28.7137    3.7171 H         1 UNK         0.0767 
    102 H102       24.2149   26.9713    3.8946 H         1 UNK         0.0767 
    103 H103       25.4484   27.8430    4.7996 H         1 UNK         0.0767 
    104 H104       26.3054   25.7084    3.5732 H         1 UNK         0.3013 
    105 H105       29.2894   27.8889    0.2293 H         1 UNK         0.3121 
    106 H106       29.7294   30.7233   -0.3437 H         1 UNK         0.0774 
    107 H107       32.0723   29.9700   -0.0686 H         1 UNK         0.0815 
    108 H108       31.6839   29.1452    1.4338 H         1 UNK         0.0815 
    109 H109       31.6059   30.9060    1.3328 H         1 UNK         0.0815 
    110 H110       30.3814   29.9900    2.8645 H         1 UNK         0.2987 
    111 H111       27.5356   30.2626    3.7359 H         1 UNK         0.0949 
    112 H112       30.1099   31.2945    5.0705 H         1 UNK         0.0806 
    113 H113       28.9391   32.3030    4.2257 H         1 UNK         0.0806 
    114 H114       28.4757   31.4746    5.6999 H         1 UNK         0.0806 
    115 H115       27.2404   29.2385    5.9354 H         1 UNK         0.3010 
    116 H116       28.2270   26.5638    6.0851 H         1 UNK         0.0829 
    117 H117       26.0274   27.2047    7.0268 H         1 UNK         0.0813 
    118 H118       27.0400   26.5450    8.2955 H         1 UNK         0.0813 
    119 H119       26.8014   28.2828    8.1895 H         1 UNK         0.0813 
    120 H120       29.5346   29.5469    7.2484 H         1 UNK         0.3038 
    121 H121       31.4954   28.3629    9.0797 H         1 UNK         0.0769 
    122 H122       31.1646   31.2304    8.0416 H         1 UNK         0.0811 
    123 H123       32.2120   30.7188    9.3573 H         1 UNK         0.0811 
    124 H124       30.4722   30.6056    9.5398 H         1 UNK         0.0811 
    125 H125       31.3010   28.0204    5.8783 H         1 UNK         0.3204 
    126 H126       32.6635   27.3583    4.3086 H         1 UNK         0.0748 
    127 H127       34.2160   26.4021    6.0585 H         1 UNK         0.0771 
    128 H128       35.0686   26.9204    4.6232 H         1 UNK         0.0771 
    129 H129       35.1198   27.9127    6.0624 H         1 UNK         0.0771 
    130 H130       35.1760   28.5039    3.4491 H         1 UNK         0.2980 
    131 H131       34.0870   30.8653    2.1396 H         1 UNK         0.0545 
    132 H132       35.6903   30.6662    5.1181 H         1 UNK         0.3459 
    133 H133       36.4351   32.2442    5.0623 H         1 UNK         0.3459 
    134 H134       36.1086   30.7316    0.7001 H         1 UNK         0.0616 
    135 H135       36.7590   29.4488    1.6845 H         1 UNK         0.0616 
    136 H136       36.5246   26.9812   -0.0344 H         1 UNK         0.0634 
    137 H137       36.1798   27.1789    1.6680 H         1 UNK         0.0634 
@<TRIPOS>BOND
     1    1    2 1    
     2    1   72 1    
     3    1   73 1    
     4    1   74 1    
     5    2    3 2    
     6    2    4 am   BACKBONE|DICT|INTERRES
     7    4    5 1    
     8    4   75 1    
     9    5    6 1    
    10    5   35 1    
    11    5   76 1    
    12    6    7 1    
    13    6   77 1    
    14    6   78 1    
    15    7    8 1    
    16    8    9 1    
    17    8   79 1    
    18    8   80 1    
    19    9   10 ar   
    20    9   14 ar   
    21   10   11 ar   
    22   10   81 1    
    23   11   12 ar   
    24   11   71 1    
    25   12   13 ar   
    26   12   82 1    
    27   13   14 ar   
    28   13   15 1    
    29   14   83 1    
    30   15   16 1    
    31   15   84 1    
    32   15   85 1    
    33   16   17 1    
    34   17   18 1    
    35   17   86 1    
    36   17   87 1    
    37   18   19 1    
    38   18   37 1    
    39   18   88 1    
    40   19   20 am   BACKBONE|DICT|INTERRES
    41   19   89 1    
    42   20   21 2    
    43   20   22 1    
    44   22   23 1    
    45   22   24 1    
    46   22   90 1    
    47   23   91 1    
    48   23   92 1    
    49   23   93 1    
    50   24   25 am   BACKBONE|DICT|INTERRES
    51   24   94 1    
    52   25   26 2    
    53   25   27 1    
    54   27   28 1    
    55   27   29 1    
    56   27   95 1    
    57   28   96 1    
    58   28   97 1    
    59   28   98 1    
    60   29   30 am   BACKBONE|DICT|INTERRES
    61   29   99 1    
    62   30   31 2    
    63   30   32 1    
    64   32   33 1    
    65   32   34 1    
    66   32  100 1    
    67   33  101 1    
    68   33  102 1    
    69   33  103 1    
    70   34   35 am   BACKBONE|DICT|INTERRES
    71   34  104 1    
    72   35   36 2    
    73   37   38 2    
    74   37   39 am   BACKBONE|DICT|INTERRES
    75   39   40 1    
    76   39  105 1    
    77   40   41 1    
    78   40   42 1    
    79   40  106 1    
    80   41  107 1    
    81   41  108 1    
    82   41  109 1    
    83   42   43 2    
    84   42   44 am   BACKBONE|DICT|INTERRES
    85   44   45 1    
    86   44  110 1    
    87   45   46 1    
    88   45   47 1    
    89   45  111 1    
    90   46  112 1    
    91   46  113 1    
    92   46  114 1    
    93   47   48 2    
    94   47   49 am   BACKBONE|DICT|INTERRES
    95   49   50 1    
    96   49  115 1    
    97   50   51 1    
    98   50   52 1    
    99   50  116 1    
   100   51  117 1    
   101   51  118 1    
   102   51  119 1    
   103   52   53 2    
   104   52   54 am   BACKBONE|DICT|INTERRES
   105   54   55 1    
   106   54  120 1    
   107   55   56 1    
   108   55   57 1    
   109   55  121 1    
   110   56  122 1    
   111   56  123 1    
   112   56  124 1    
   113   57   58 2    
   114   57   59 am   BACKBONE|DICT|INTERRES
   115   59   60 1    
   116   59  125 1    
   117   60   61 1    
   118   60   62 1    
   119   60  126 1    
   120   61  127 1    
   121   61  128 1    
   122   61  129 1    
   123   62   63 2    
   124   62   64 am   BACKBONE|DICT|INTERRES
   125   64   65 1    
   126   64  130 1    
   127   65   66 1    
   128   65   69 1    
   129   65  131 1    
   130   66   67 am   BACKBONE|DICT|INTERRES
   131   66   68 2    
   132   67  132 1    
   133   67  133 1    
   134   69   70 1    
   135   69  134 1    
   136   69  135 1    
   137   70   71 1    
   138   71  136 1    
   139   71  137 1    
@<TRIPOS>SUBSTRUCTURE
     1 UNK         1 GROUP             0       ****    0 ROOT    
