@<TRIPOS>MOLECULE
3R136
137   139    1
SMALL
USER_CHARGES


@<TRIPOS>ATOM
      1 CA         28.2577   21.7584    0.4005 C.3       0 UNK        -0.1979 
      2 C          28.8349   22.9139   -0.4032 C.2       0 UNK         0.4864 
      3 O          28.8193   22.8703   -1.6344 O.2       0 UNK        -0.5359 
      4 N          29.3280   23.9547    0.2815 N.am      1 UNK        -0.4318 
      5 CA         29.8665   25.1893   -0.2973 C.3       1 UNK         0.0824 
      6 C6         30.5267   26.0715    0.7916 C.3       12 UNK        -0.0944 
      7 S7         32.2539   25.6201    1.1663 S.3       12 UNK        -0.2672 
      8 C8         32.1183   24.1539    2.2420 C.3       12 UNK         0.0333 
      9 C9         31.3851   24.4250    3.5494 C.ar      12 UNK        -0.0807 
     10 C10        31.9925   25.1729    4.5630 C.ar      12 UNK        -0.0894 
     11 C11        31.3417   25.3746    5.7854 C.ar      12 UNK        -0.0804 
     12 C12        30.0589   24.8489    5.9771 C.ar      12 UNK        -0.0824 
     13 C13        29.4428   24.0915    4.9739 C.ar      12 UNK        -0.0762 
     14 C14        30.1208   23.8726    3.7714 C.ar      12 UNK        -0.0782 
     15 C15        28.0785   23.4512    5.2195 C.3       12 UNK         0.0230 
     16 S16        26.8930   23.6980    3.8513 S.3       12 UNK        -0.2608 
     17 C17        26.5512   25.4834    3.9820 C.3       12 UNK        -0.0989 
     18 CA         26.6701   26.1992    2.6084 C.3       5 UNK         0.0716 
     19 N          25.6902   25.7759    1.5979 N.am      5 UNK        -0.4135 
     20 C          24.3557   25.8831    1.6854 C.2       4 UNK         0.5031 
     21 O          23.7593   26.2300    2.7058 O.2       4 UNK        -0.5229 
     22 CA         23.5250   25.6057    0.4180 C.3       4 UNK         0.0329 
     23 CB         22.8579   26.9025   -0.0727 C.3       4 UNK        -0.2001 
     24 N          24.2821   25.0332   -0.6962 N.am      4 UNK        -0.4303 
     25 C          24.6376   23.7512   -0.8281 C.2       3 UNK         0.5044 
     26 O          24.4240   22.8929    0.0274 O.2       3 UNK        -0.5152 
     27 CA         25.3546   23.3527   -2.1327 C.3       3 UNK         0.0319 
     28 CB         24.3425   23.0823   -3.2628 C.3       3 UNK        -0.2001 
     29 N          26.4112   24.2825   -2.5604 N.am      3 UNK        -0.4354 
     30 C          26.3103   25.5558   -2.9787 C.2       2 UNK         0.4964 
     31 O          25.2376   26.1482   -3.1083 O.2       2 UNK        -0.5047 
     32 CA         27.6354   26.3015   -3.2495 C.3       2 UNK         0.0288 
     33 CB         27.4734   27.8371   -3.2140 C.3       2 UNK        -0.2113 
     34 N          28.7188   25.8649   -2.3571 N.am      2 UNK        -0.4145 
     35 C          28.7322   25.9453   -1.0180 C.2       1 UNK         0.5006 
     36 O          27.8711   26.5234   -0.3493 O.2       1 UNK        -0.5103 
     37 C          26.6710   27.7368    2.7214 C.2       5 UNK         0.5055 
     38 O          26.4779   28.2833    3.8092 O.2       5 UNK        -0.5220 
     39 N          26.8802   28.4046    1.5759 N.am      6 UNK        -0.4450 
     40 CA         27.0755   29.8551    1.4874 C.3       6 UNK         0.0367 
     41 CB         26.9990   30.3066    0.0192 C.3       6 UNK        -0.1929 
     42 C          28.4135   30.2522    2.1306 C.2       6 UNK         0.5070 
     43 O          28.4358   31.1001    3.0221 O.2       6 UNK        -0.5237 
     44 N          29.4786   29.5587    1.6974 N.am      7 UNK        -0.4739 
     45 CA         30.7920   29.4313    2.3412 C.3       7 UNK         0.0276 
     46 CB         30.6538   28.5217    3.5761 C.3       7 UNK        -0.1927 
     47 C          31.5023   30.7579    2.6747 C.2       7 UNK         0.5013 
     48 O          32.1809   30.8399    3.7020 O.2       7 UNK        -0.5193 
     49 N          31.3479   31.7606    1.7969 N.am      8 UNK        -0.4253 
     50 CA         31.8900   33.1184    1.9199 C.3       8 UNK         0.0242 
     51 CB         31.4897   33.9337    0.6777 C.3       8 UNK        -0.2000 
     52 C          33.4151   33.1301    2.1339 C.2       8 UNK         0.4948 
     53 O          34.1671   32.9437    1.1756 O.2       8 UNK        -0.5275 
     54 N          33.8212   33.2947    3.4021 N.am      9 UNK        -0.4246 
     55 CA         35.1911   33.2175    3.9275 C.3       9 UNK         0.0261 
     56 CB         36.0627   34.3591    3.3604 C.3       9 UNK        -0.1959 
     57 C          35.8574   31.8315    3.7703 C.2       9 UNK         0.5033 
     58 O          37.0845   31.7459    3.8524 O.2       9 UNK        -0.5390 
     59 N          35.0612   30.7726    3.5590 N.am      10 UNK        -0.4215 
     60 CA         35.5476   29.4010    3.3884 C.3       10 UNK         0.0240 
     61 CB         34.6287   28.6377    2.4206 C.3       10 UNK        -0.1982 
     62 C          35.6583   28.6555    4.7263 C.2       10 UNK         0.4970 
     63 O          36.5666   27.8373    4.8777 O.2       10 UNK        -0.4916 
     64 N          34.7406   28.9330    5.6629 N.am      11 UNK        -0.4279 
     65 CA         34.7262   28.3324    7.0056 C.3       11 UNK         0.1003 
     66 C          35.8729   28.8682    7.9053 C.2       11 UNK         0.5709 
     67 N          36.3887   28.0461    8.8092 N.am      11 UNK        -0.7358 
     68 O          36.2691   30.0296    7.8203 O.2       11 UNK        -0.4999 
     69 C69        33.3528   28.4903    7.7141 C.3       12 UNK        -0.0954 
     70 S70        31.9434   27.9133    6.7123 S.3       12 UNK        -0.2268 
     71 C71        32.0535   26.1112    6.9129 C.3       12 UNK         0.0203 
     72 H72        28.2828   21.9490    1.4728 H         1 UNK         0.0888 
     73 H73        27.2199   21.5858    0.1168 H         1 UNK         0.0888 
     74 H74        28.8210   20.8468    0.2034 H         1 UNK         0.0888 
     75 H75        29.2724   23.9473    1.2869 H         1 UNK         0.3017 
     76 H76        30.6237   24.9209   -1.0374 H         1 UNK         0.0873 
     77 H77        29.9382   26.0796    1.7082 H         1 UNK         0.0745 
     78 H78        30.5693   27.1076    0.4551 H         1 UNK         0.0745 
     79 H79        31.6460   23.3426    1.6872 H         1 UNK         0.0705 
     80 H80        33.1260   23.8051    2.4719 H         1 UNK         0.0705 
     81 H81        32.9821   25.5811    4.4076 H         1 UNK         0.1334 
     82 H82        29.5558   25.0013    6.9223 H         1 UNK         0.1417 
     83 H83        29.6655   23.2471    3.0193 H         1 UNK         0.1562 
     84 H84        27.6324   23.8265    6.1420 H         1 UNK         0.0748 
     85 H85        28.2223   22.3797    5.3640 H         1 UNK         0.0748 
     86 H86        27.2580   25.9196    4.6906 H         1 UNK         0.0940 
     87 H87        25.5654   25.6258    4.4258 H         1 UNK         0.0940 
     88 H88        27.6488   25.9383    2.2073 H         1 UNK         0.0703 
     89 H89        26.0822   25.5298    0.6994 H         1 UNK         0.3081 
     90 H90        22.7385   24.9012    0.6970 H         1 UNK         0.0719 
     91 H91        22.2400   27.3480    0.7082 H         1 UNK         0.0809 
     92 H92        23.5974   27.6480   -0.3689 H         1 UNK         0.0809 
     93 H93        22.2085   26.7159   -0.9283 H         1 UNK         0.0809 
     94 H94        24.5019   25.6517   -1.4741 H         1 UNK         0.2990 
     95 H95        25.8668   22.4111   -1.9282 H         1 UNK         0.0690 
     96 H96        24.8420   22.7325   -4.1662 H         1 UNK         0.0788 
     97 H97        23.7666   23.9715   -3.5209 H         1 UNK         0.0788 
     98 H98        23.6293   22.3114   -2.9679 H         1 UNK         0.0788 
     99 H99        27.3499   23.9069   -2.4492 H         1 UNK         0.2993 
    100 H100       27.9366   26.0235   -4.2607 H         1 UNK         0.0949 
    101 H101       27.0607   28.1790   -2.2649 H         1 UNK         0.0767 
    102 H102       28.4265   28.3425   -3.3692 H         1 UNK         0.0767 
    103 H103       26.7960   28.1752   -3.9991 H         1 UNK         0.0767 
    104 H104       29.4561   25.3354   -2.8033 H         1 UNK         0.3013 
    105 H105       27.0639   27.8570    0.7383 H         1 UNK         0.3121 
    106 H106       26.2717   30.3458    2.0406 H         1 UNK         0.0774 
    107 H107       27.7722   29.8432   -0.5942 H         1 UNK         0.0815 
    108 H108       26.0324   30.0589   -0.4199 H         1 UNK         0.0815 
    109 H109       27.1232   31.3873   -0.0612 H         1 UNK         0.0815 
    110 H110       29.3188   28.9286    0.9250 H         1 UNK         0.2987 
    111 H111       31.4411   28.9243    1.6267 H         1 UNK         0.0949 
    112 H112       30.0785   27.6218    3.3669 H         1 UNK         0.0806 
    113 H113       31.6324   28.1961    3.9232 H         1 UNK         0.0806 
    114 H114       30.1630   29.0382    4.4019 H         1 UNK         0.0806 
    115 H115       30.7774   31.5799    0.9841 H         1 UNK         0.3010 
    116 H116       31.4146   33.5811    2.7873 H         1 UNK         0.0829 
    117 H117       31.8759   33.4891   -0.2406 H         1 UNK         0.0813 
    118 H118       31.8809   34.9504    0.7362 H         1 UNK         0.0813 
    119 H119       30.4062   34.0101    0.5841 H         1 UNK         0.0813 
    120 H120       33.1020   33.3846    4.1077 H         1 UNK         0.3038 
    121 H121       35.1050   33.3782    5.0031 H         1 UNK         0.0769 
    122 H122       35.5842   35.3290    3.4951 H         1 UNK         0.0811 
    123 H123       36.2608   34.2269    2.2963 H         1 UNK         0.0811 
    124 H124       37.0281   34.4044    3.8657 H         1 UNK         0.0811 
    125 H125       34.0528   30.9124    3.5427 H         1 UNK         0.3204 
    126 H126       36.5434   29.4273    2.9401 H         1 UNK         0.0748 
    127 H127       33.6340   28.4925    2.8374 H         1 UNK         0.0771 
    128 H128       34.5242   29.1630    1.4710 H         1 UNK         0.0771 
    129 H129       35.0312   27.6477    2.2017 H         1 UNK         0.0771 
    130 H130       34.0231   29.6156    5.4700 H         1 UNK         0.2980 
    131 H131       34.9034   27.2640    6.8707 H         1 UNK         0.0545 
    132 H132       36.0643   27.0958    8.8978 H         1 UNK         0.3459 
    133 H133       37.1232   28.3819    9.4125 H         1 UNK         0.3459 
    134 H134       33.1727   29.5388    7.9584 H         1 UNK         0.0616 
    135 H135       33.3445   27.9508    8.6630 H         1 UNK         0.0616 
    136 H136       31.6346   25.8342    7.8814 H         1 UNK         0.0634 
    137 H137       33.0985   25.8015    6.9327 H         1 UNK         0.0634 
@<TRIPOS>BOND
     1    1    2 1    
     2    1   72 1    
     3    1   73 1    
     4    1   74 1    
     5    2    3 2    
     6    2    4 am   BACKBONE|DICT|INTERRES
     7    4    5 1    
     8    4   75 1    
     9    5    6 1    
    10    5   35 1    
    11    5   76 1    
    12    6    7 1    
    13    6   77 1    
    14    6   78 1    
    15    7    8 1    
    16    8    9 1    
    17    8   79 1    
    18    8   80 1    
    19    9   10 ar   
    20    9   14 ar   
    21   10   11 ar   
    22   10   81 1    
    23   11   12 ar   
    24   11   71 1    
    25   12   13 ar   
    26   12   82 1    
    27   13   14 ar   
    28   13   15 1    
    29   14   83 1    
    30   15   16 1    
    31   15   84 1    
    32   15   85 1    
    33   16   17 1    
    34   17   18 1    
    35   17   86 1    
    36   17   87 1    
    37   18   19 1    
    38   18   37 1    
    39   18   88 1    
    40   19   20 am   BACKBONE|DICT|INTERRES
    41   19   89 1    
    42   20   21 2    
    43   20   22 1    
    44   22   23 1    
    45   22   24 1    
    46   22   90 1    
    47   23   91 1    
    48   23   92 1    
    49   23   93 1    
    50   24   25 am   BACKBONE|DICT|INTERRES
    51   24   94 1    
    52   25   26 2    
    53   25   27 1    
    54   27   28 1    
    55   27   29 1    
    56   27   95 1    
    57   28   96 1    
    58   28   97 1    
    59   28   98 1    
    60   29   30 am   BACKBONE|DICT|INTERRES
    61   29   99 1    
    62   30   31 2    
    63   30   32 1    
    64   32   33 1    
    65   32   34 1    
    66   32  100 1    
    67   33  101 1    
    68   33  102 1    
    69   33  103 1    
    70   34   35 am   BACKBONE|DICT|INTERRES
    71   34  104 1    
    72   35   36 2    
    73   37   38 2    
    74   37   39 am   BACKBONE|DICT|INTERRES
    75   39   40 1    
    76   39  105 1    
    77   40   41 1    
    78   40   42 1    
    79   40  106 1    
    80   41  107 1    
    81   41  108 1    
    82   41  109 1    
    83   42   43 2    
    84   42   44 am   BACKBONE|DICT|INTERRES
    85   44   45 1    
    86   44  110 1    
    87   45   46 1    
    88   45   47 1    
    89   45  111 1    
    90   46  112 1    
    91   46  113 1    
    92   46  114 1    
    93   47   48 2    
    94   47   49 am   BACKBONE|DICT|INTERRES
    95   49   50 1    
    96   49  115 1    
    97   50   51 1    
    98   50   52 1    
    99   50  116 1    
   100   51  117 1    
   101   51  118 1    
   102   51  119 1    
   103   52   53 2    
   104   52   54 am   BACKBONE|DICT|INTERRES
   105   54   55 1    
   106   54  120 1    
   107   55   56 1    
   108   55   57 1    
   109   55  121 1    
   110   56  122 1    
   111   56  123 1    
   112   56  124 1    
   113   57   58 2    
   114   57   59 am   BACKBONE|DICT|INTERRES
   115   59   60 1    
   116   59  125 1    
   117   60   61 1    
   118   60   62 1    
   119   60  126 1    
   120   61  127 1    
   121   61  128 1    
   122   61  129 1    
   123   62   63 2    
   124   62   64 am   BACKBONE|DICT|INTERRES
   125   64   65 1    
   126   64  130 1    
   127   65   66 1    
   128   65   69 1    
   129   65  131 1    
   130   66   67 am   BACKBONE|DICT|INTERRES
   131   66   68 2    
   132   67  132 1    
   133   67  133 1    
   134   69   70 1    
   135   69  134 1    
   136   69  135 1    
   137   70   71 1    
   138   71  136 1    
   139   71  137 1    
@<TRIPOS>SUBSTRUCTURE
     1 UNK         1 GROUP             0       ****    0 ROOT    
