@<TRIPOS>MOLECULE
3R136
137   139    1
SMALL
USER_CHARGES


@<TRIPOS>ATOM
      1 CA         28.3324   21.1638   -2.7299 C.3       0 UNK        -0.1979 
      2 C          28.6769   21.4607   -1.2773 C.2       0 UNK         0.4864 
      3 O          28.3421   20.6598   -0.4033 O.2       0 UNK        -0.5359 
      4 N          29.3419   22.6009   -1.0360 N.am      1 UNK        -0.4318 
      5 CA         29.7509   23.1545    0.2643 C.3       1 UNK         0.0824 
      6 C6         30.6768   22.2098    1.0880 C.3       12 UNK        -0.0944 
      7 S7         32.3206   22.0452    0.3134 S.3       12 UNK        -0.2672 
      8 C8         33.3559   23.0793    1.4070 C.3       12 UNK         0.0333 
      9 C9         32.7908   24.4834    1.5858 C.ar      12 UNK        -0.0807 
     10 C10        32.3896   24.9296    2.8485 C.ar      12 UNK        -0.0894 
     11 C11        31.8339   26.2027    3.0094 C.ar      12 UNK        -0.0804 
     12 C12        31.6639   27.0282    1.8918 C.ar      12 UNK        -0.0824 
     13 C13        32.0763   26.5948    0.6271 C.ar      12 UNK        -0.0762 
     14 C14        32.6541   25.3311    0.4843 C.ar      12 UNK        -0.0782 
     15 C15        31.9023   27.4773   -0.5974 C.3       12 UNK         0.0230 
     16 S16        30.3367   27.1089   -1.4494 S.3       12 UNK        -0.2608 
     17 C17        29.2209   28.2529   -0.5805 C.3       12 UNK        -0.0989 
     18 CA         27.8254   28.3312   -1.2425 C.3       5 UNK         0.0716 
     19 N          27.0799   27.0767   -1.1238 N.am      5 UNK        -0.4135 
     20 C          26.1484   26.6599   -1.9922 C.2       4 UNK         0.5031 
     21 O          25.8874   27.2342   -3.0501 O.2       4 UNK        -0.5229 
     22 CA         25.3598   25.3924   -1.6134 C.3       4 UNK         0.0329 
     23 CB         26.0562   24.1413   -2.1687 C.3       4 UNK        -0.2001 
     24 N          25.1737   25.2579   -0.1647 N.am      4 UNK        -0.4303 
     25 C          24.3627   26.0502    0.5555 C.2       3 UNK         0.5044 
     26 O          23.6231   26.8981    0.0556 O.2       3 UNK        -0.5152 
     27 CA         24.3850   25.9077    2.0899 C.3       3 UNK         0.0319 
     28 CB         23.1900   25.0668    2.5666 C.3       3 UNK        -0.2001 
     29 N          25.6189   25.3401    2.6412 N.am      3 UNK        -0.4354 
     30 C          26.8514   25.8455    2.4961 C.2       2 UNK         0.4964 
     31 O          27.1004   26.8619    1.8472 O.2       2 UNK        -0.5047 
     32 CA         28.0144   25.0664    3.1365 C.3       2 UNK         0.0288 
     33 CB         27.5710   23.9793    4.1418 C.3       2 UNK        -0.2113 
     34 N          28.9072   24.4821    2.1291 N.am      2 UNK        -0.4145 
     35 C          28.5676   23.6806    1.1058 C.2       1 UNK         0.5006 
     36 O          27.4020   23.3863    0.8245 O.2       1 UNK        -0.5103 
     37 C          27.0218   29.4920   -0.6310 C.2       5 UNK         0.5055 
     38 O          27.0332   30.5911   -1.1876 O.2       5 UNK        -0.5220 
     39 N          26.3747   29.2372    0.5173 N.am      6 UNK        -0.4450 
     40 CA         25.6329   30.1578    1.3895 C.3       6 UNK         0.0367 
     41 CB         24.4814   30.8668    0.6509 C.3       6 UNK        -0.1929 
     42 C          26.5475   31.1528    2.1255 C.2       6 UNK         0.5070 
     43 O          26.4421   31.2801    3.3456 O.2       6 UNK        -0.5237 
     44 N          27.4529   31.8068    1.3892 N.am      7 UNK        -0.4739 
     45 CA         28.5831   32.5584    1.9304 C.3       7 UNK         0.0276 
     46 CB         29.1323   33.4939    0.8418 C.3       7 UNK        -0.1927 
     47 C          29.6757   31.5884    2.4092 C.2       7 UNK         0.5013 
     48 O          29.9320   30.5813    1.7439 O.2       7 UNK        -0.5193 
     49 N          30.3072   31.9093    3.5428 N.am      8 UNK        -0.4253 
     50 CA         31.3879   31.1134    4.1195 C.3       8 UNK         0.0242 
     51 CB         31.5028   31.4239    5.6211 C.3       8 UNK        -0.2000 
     52 C          32.7211   31.3963    3.4119 C.2       8 UNK         0.4948 
     53 O          33.0842   32.5631    3.2471 O.2       8 UNK        -0.5275 
     54 N          33.4458   30.3269    3.0607 N.am      9 UNK        -0.4246 
     55 CA         34.8408   30.3820    2.6134 C.3       9 UNK         0.0261 
     56 CB         35.1832   29.0838    1.8626 C.3       9 UNK        -0.1959 
     57 C          35.8004   30.6001    3.7992 C.2       9 UNK         0.5033 
     58 O          36.7701   31.3488    3.6751 O.2       9 UNK        -0.5390 
     59 N          35.4822   29.9592    4.9291 N.am      10 UNK        -0.4215 
     60 CA         36.1133   30.0900    6.2387 C.3       10 UNK         0.0240 
     61 CB         37.4904   29.3957    6.2797 C.3       10 UNK        -0.1982 
     62 C          35.1080   29.5027    7.2321 C.2       10 UNK         0.4970 
     63 O          34.4259   30.2568    7.9248 O.2       10 UNK        -0.4916 
     64 N          34.9538   28.1727    7.1698 N.am      11 UNK        -0.4279 
     65 CA         33.7855   27.4063    7.6451 C.3       11 UNK         0.1003 
     66 C          33.5716   27.3879    9.1888 C.2       11 UNK         0.5709 
     67 N          34.5655   27.7417    9.9944 N.am      11 UNK        -0.7358 
     68 O          32.5033   27.0144    9.6681 O.2       11 UNK        -0.4999 
     69 C69        32.4882   27.7572    6.8513 C.3       12 UNK        -0.0954 
     70 S70        32.7701   27.7580    5.0443 S.3       12 UNK        -0.2268 
     71 C71        31.4539   26.6907    4.3986 C.3       12 UNK         0.0203 
     72 H72        27.2527   21.0735   -2.8470 H         1 UNK         0.0888 
     73 H73        28.6806   21.9477   -3.4023 H         1 UNK         0.0888 
     74 H74        28.7892   20.2242   -3.0395 H         1 UNK         0.0888 
     75 H75        29.5726   23.1898   -1.8234 H         1 UNK         0.3017 
     76 H76        30.3193   24.0478    0.0072 H         1 UNK         0.0873 
     77 H77        30.2409   21.2166    1.1948 H         1 UNK         0.0745 
     78 H78        30.8137   22.5649    2.1103 H         1 UNK         0.0745 
     79 H79        34.3598   23.1473    0.9859 H         1 UNK         0.0705 
     80 H80        33.4599   22.5770    2.3701 H         1 UNK         0.0705 
     81 H81        32.5157   24.2878    3.7101 H         1 UNK         0.1334 
     82 H82        31.2246   28.0105    2.0069 H         1 UNK         0.1417 
     83 H83        32.9659   24.9895   -0.4938 H         1 UNK         0.1562 
     84 H84        32.7268   27.3091   -1.2920 H         1 UNK         0.0748 
     85 H85        31.9522   28.5322   -0.3224 H         1 UNK         0.0748 
     86 H86        29.6921   29.2382   -0.5845 H         1 UNK         0.0940 
     87 H87        29.1469   27.9552    0.4672 H         1 UNK         0.0940 
     88 H88        27.9686   28.5610   -2.3009 H         1 UNK         0.0703 
     89 H89        27.2014   26.5689   -0.2573 H         1 UNK         0.3081 
     90 H90        24.3731   25.4625   -2.0765 H         1 UNK         0.0719 
     91 H91        26.1076   24.1756   -3.2578 H         1 UNK         0.0809 
     92 H92        27.0771   24.0578   -1.7991 H         1 UNK         0.0809 
     93 H93        25.5229   23.2306   -1.8957 H         1 UNK         0.0809 
     94 H94        25.7567   24.5779    0.3141 H         1 UNK         0.2990 
     95 H95        24.2806   26.9129    2.5035 H         1 UNK         0.0690 
     96 H96        23.1276   25.0447    3.6548 H         1 UNK         0.0788 
     97 H97        23.2544   24.0374    2.2113 H         1 UNK         0.0788 
     98 H98        22.2494   25.4801    2.1993 H         1 UNK         0.0788 
     99 H99        25.5245   24.4778    3.1582 H         1 UNK         0.2993 
    100 H100       28.5993   25.8055    3.6850 H         1 UNK         0.0949 
    101 H101       26.9346   24.3966    4.9236 H         1 UNK         0.0767 
    102 H102       27.0249   23.1670    3.6603 H         1 UNK         0.0767 
    103 H103       28.4347   23.5385    4.6401 H         1 UNK         0.0767 
    104 H104       29.8838   24.7239    2.2331 H         1 UNK         0.3013 
    105 H105       26.5331   28.3201    0.9318 H         1 UNK         0.3121 
    106 H106       25.1823   29.5239    2.1550 H         1 UNK         0.0774 
    107 H107       23.8225   30.1466    0.1655 H         1 UNK         0.0815 
    108 H108       23.8741   31.4447    1.3484 H         1 UNK         0.0815 
    109 H109       24.8424   31.5588   -0.1101 H         1 UNK         0.0815 
    110 H110       27.4744   31.5968    0.3953 H         1 UNK         0.2987 
    111 H111       28.2368   33.1610    2.7732 H         1 UNK         0.0949 
    112 H112       28.3717   34.1972    0.5023 H         1 UNK         0.0806 
    113 H113       29.9721   34.0800    1.2176 H         1 UNK         0.0806 
    114 H114       29.4860   32.9368   -0.0271 H         1 UNK         0.0806 
    115 H115       30.0819   32.7761    4.0092 H         1 UNK         0.3010 
    116 H116       31.1380   30.0557    4.0101 H         1 UNK         0.0829 
    117 H117       32.3292   30.8741    6.0722 H         1 UNK         0.0813 
    118 H118       31.6860   32.4837    5.8029 H         1 UNK         0.0813 
    119 H119       30.5956   31.1417    6.1556 H         1 UNK         0.0813 
    120 H120       33.0601   29.4064    3.2222 H         1 UNK         0.3038 
    121 H121       34.9586   31.2201    1.9230 H         1 UNK         0.0769 
    122 H122       36.2156   29.0983    1.5108 H         1 UNK         0.0811 
    123 H123       34.5454   28.9524    0.9882 H         1 UNK         0.0811 
    124 H124       35.0658   28.2024    2.4948 H         1 UNK         0.0811 
    125 H125       34.6510   29.3818    4.9228 H         1 UNK         0.3204 
    126 H126       36.2400   31.1500    6.4687 H         1 UNK         0.0748 
    127 H127       37.8959   29.3914    7.2923 H         1 UNK         0.0771 
    128 H128       37.4450   28.3620    5.9360 H         1 UNK         0.0771 
    129 H129       38.2103   29.9177    5.6490 H         1 UNK         0.0771 
    130 H130       35.5982   27.6475    6.5975 H         1 UNK         0.2980 
    131 H131       34.0220   26.3696    7.4039 H         1 UNK         0.0545 
    132 H132       35.4449   28.0495    9.6112 H         1 UNK         0.3459 
    133 H133       34.4269   27.7179   10.9922 H         1 UNK         0.3459 
    134 H134       31.6934   27.0489    7.0902 H         1 UNK         0.0616 
    135 H135       32.1153   28.7397    7.1427 H         1 UNK         0.0616 
    136 H136       31.2971   25.8445    5.0693 H         1 UNK         0.0634 
    137 H137       30.5174   27.2492    4.3660 H         1 UNK         0.0634 
@<TRIPOS>BOND
     1    1    2 1    
     2    1   72 1    
     3    1   73 1    
     4    1   74 1    
     5    2    3 2    
     6    2    4 am   BACKBONE|DICT|INTERRES
     7    4    5 1    
     8    4   75 1    
     9    5    6 1    
    10    5   35 1    
    11    5   76 1    
    12    6    7 1    
    13    6   77 1    
    14    6   78 1    
    15    7    8 1    
    16    8    9 1    
    17    8   79 1    
    18    8   80 1    
    19    9   10 ar   
    20    9   14 ar   
    21   10   11 ar   
    22   10   81 1    
    23   11   12 ar   
    24   11   71 1    
    25   12   13 ar   
    26   12   82 1    
    27   13   14 ar   
    28   13   15 1    
    29   14   83 1    
    30   15   16 1    
    31   15   84 1    
    32   15   85 1    
    33   16   17 1    
    34   17   18 1    
    35   17   86 1    
    36   17   87 1    
    37   18   19 1    
    38   18   37 1    
    39   18   88 1    
    40   19   20 am   BACKBONE|DICT|INTERRES
    41   19   89 1    
    42   20   21 2    
    43   20   22 1    
    44   22   23 1    
    45   22   24 1    
    46   22   90 1    
    47   23   91 1    
    48   23   92 1    
    49   23   93 1    
    50   24   25 am   BACKBONE|DICT|INTERRES
    51   24   94 1    
    52   25   26 2    
    53   25   27 1    
    54   27   28 1    
    55   27   29 1    
    56   27   95 1    
    57   28   96 1    
    58   28   97 1    
    59   28   98 1    
    60   29   30 am   BACKBONE|DICT|INTERRES
    61   29   99 1    
    62   30   31 2    
    63   30   32 1    
    64   32   33 1    
    65   32   34 1    
    66   32  100 1    
    67   33  101 1    
    68   33  102 1    
    69   33  103 1    
    70   34   35 am   BACKBONE|DICT|INTERRES
    71   34  104 1    
    72   35   36 2    
    73   37   38 2    
    74   37   39 am   BACKBONE|DICT|INTERRES
    75   39   40 1    
    76   39  105 1    
    77   40   41 1    
    78   40   42 1    
    79   40  106 1    
    80   41  107 1    
    81   41  108 1    
    82   41  109 1    
    83   42   43 2    
    84   42   44 am   BACKBONE|DICT|INTERRES
    85   44   45 1    
    86   44  110 1    
    87   45   46 1    
    88   45   47 1    
    89   45  111 1    
    90   46  112 1    
    91   46  113 1    
    92   46  114 1    
    93   47   48 2    
    94   47   49 am   BACKBONE|DICT|INTERRES
    95   49   50 1    
    96   49  115 1    
    97   50   51 1    
    98   50   52 1    
    99   50  116 1    
   100   51  117 1    
   101   51  118 1    
   102   51  119 1    
   103   52   53 2    
   104   52   54 am   BACKBONE|DICT|INTERRES
   105   54   55 1    
   106   54  120 1    
   107   55   56 1    
   108   55   57 1    
   109   55  121 1    
   110   56  122 1    
   111   56  123 1    
   112   56  124 1    
   113   57   58 2    
   114   57   59 am   BACKBONE|DICT|INTERRES
   115   59   60 1    
   116   59  125 1    
   117   60   61 1    
   118   60   62 1    
   119   60  126 1    
   120   61  127 1    
   121   61  128 1    
   122   61  129 1    
   123   62   63 2    
   124   62   64 am   BACKBONE|DICT|INTERRES
   125   64   65 1    
   126   64  130 1    
   127   65   66 1    
   128   65   69 1    
   129   65  131 1    
   130   66   67 am   BACKBONE|DICT|INTERRES
   131   66   68 2    
   132   67  132 1    
   133   67  133 1    
   134   69   70 1    
   135   69  134 1    
   136   69  135 1    
   137   70   71 1    
   138   71  136 1    
   139   71  137 1    
@<TRIPOS>SUBSTRUCTURE
     1 UNK         1 GROUP             0       ****    0 ROOT    
