@<TRIPOS>MOLECULE
3R136
137   139    1
SMALL
USER_CHARGES


@<TRIPOS>ATOM
      1 CA         27.6063   22.4568   -5.2054 C.3       0 UNK        -0.1979 
      2 C          27.6377   22.7537   -3.7143 C.2       0 UNK         0.4864 
      3 O          26.6406   23.2217   -3.1603 O.2       0 UNK        -0.5359 
      4 N          28.7726   22.4927   -3.0506 N.am      1 UNK        -0.4318 
      5 CA         28.9257   22.6856   -1.6060 C.3       1 UNK         0.0824 
      6 C6         30.4079   22.6414   -1.1508 C.3       12 UNK        -0.0944 
      7 S7         30.7288   23.8579    0.1698 S.3       12 UNK        -0.2672 
      8 C8         30.6784   22.8110    1.6553 C.3       12 UNK         0.0333 
      9 C9         30.5040   23.6646    2.9003 C.ar      12 UNK        -0.0807 
     10 C10        31.6209   24.1276    3.6000 C.ar      12 UNK        -0.0894 
     11 C11        31.4644   24.9249    4.7377 C.ar      12 UNK        -0.0804 
     12 C12        30.1797   25.2662    5.1697 C.ar      12 UNK        -0.0824 
     13 C13        29.0536   24.8114    4.4761 C.ar      12 UNK        -0.0762 
     14 C14        29.2232   24.0014    3.3481 C.ar      12 UNK        -0.0782 
     15 C15        27.6575   25.1874    4.9594 C.3       12 UNK         0.0230 
     16 S16        26.6324   25.9615    3.6649 S.3       12 UNK        -0.2608 
     17 C17        27.6435   27.3993    3.1718 C.3       12 UNK        -0.0989 
     18 CA         28.2794   27.2338    1.7651 C.3       5 UNK         0.0716 
     19 N          27.2827   27.1779    0.6965 N.am      5 UNK        -0.4135 
     20 C          26.8824   26.0673    0.0742 C.2       4 UNK         0.5031 
     21 O          27.2526   24.9341    0.3905 O.2       4 UNK        -0.5229 
     22 CA         25.9529   26.2601   -1.1367 C.3       4 UNK         0.0329 
     23 CB         26.7731   26.6452   -2.3794 C.3       4 UNK        -0.2001 
     24 N          25.2323   25.0195   -1.4194 N.am      4 UNK        -0.4303 
     25 C          24.0684   24.6652   -0.8578 C.2       3 UNK         0.5044 
     26 O          23.3594   25.4256   -0.1976 O.2       3 UNK        -0.5152 
     27 CA         23.6693   23.1875   -1.0008 C.3       3 UNK         0.0319 
     28 CB         23.2717   22.8324   -2.4435 C.3       3 UNK        -0.2001 
     29 N          24.7893   22.3564   -0.5538 N.am      3 UNK        -0.4354 
     30 C          24.9994   22.0321    0.7314 C.2       2 UNK         0.4964 
     31 O          24.1401   22.1293    1.6082 O.2       2 UNK        -0.5047 
     32 CA         26.4153   21.5957    1.1382 C.3       2 UNK         0.0288 
     33 CB         26.5333   20.0710    1.3369 C.3       2 UNK        -0.2113 
     34 N          27.4401   22.1843    0.2647 N.am      2 UNK        -0.4145 
     35 C          28.0436   21.6892   -0.8228 C.2       1 UNK         0.5006 
     36 O          27.9292   20.5312   -1.2307 O.2       1 UNK        -0.5103 
     37 C          29.1837   28.4307    1.4453 C.2       5 UNK         0.5055 
     38 O          28.6762   29.4610    0.9927 O.2       5 UNK        -0.5220 
     39 N          30.4875   28.3164    1.7298 N.am      6 UNK        -0.4450 
     40 CA         31.4751   29.3909    1.5567 C.3       6 UNK         0.0367 
     41 CB         32.8617   28.7719    1.3010 C.3       6 UNK        -0.1929 
     42 C          31.4769   30.3694    2.7488 C.2       6 UNK         0.5070 
     43 O          32.5439   30.7271    3.2553 O.2       6 UNK        -0.5237 
     44 N          30.2791   30.7602    3.2038 N.am      7 UNK        -0.4739 
     45 CA         30.0395   31.6499    4.3404 C.3       7 UNK         0.0276 
     46 CB         28.5265   31.7699    4.5775 C.3       7 UNK        -0.1927 
     47 C          30.6695   33.0327    4.1200 C.2       7 UNK         0.5013 
     48 O          30.5904   33.5664    3.0111 O.2       7 UNK        -0.5193 
     49 N          31.3230   33.5573    5.1650 N.am      8 UNK        -0.4253 
     50 CA         32.1326   34.7860    5.2184 C.3       8 UNK         0.0242 
     51 CB         31.3019   36.0360    4.8661 C.3       8 UNK        -0.2000 
     52 C          33.4348   34.7316    4.3933 C.2       8 UNK         0.4948 
     53 O          34.4426   35.2796    4.8406 O.2       8 UNK        -0.5275 
     54 N          33.4079   34.0678    3.2300 N.am      9 UNK        -0.4246 
     55 CA         34.5550   33.8346    2.3514 C.3       9 UNK         0.0261 
     56 CB         34.0669   33.2573    1.0123 C.3       9 UNK        -0.1959 
     57 C          35.6139   32.9175    2.9856 C.2       9 UNK         0.5033 
     58 O          36.8053   33.2147    2.8812 O.2       9 UNK        -0.5390 
     59 N          35.1645   31.8358    3.6345 N.am      10 UNK        -0.4215 
     60 CA         36.0204   30.8759    4.3353 C.3       10 UNK         0.0240 
     61 CB         36.4594   29.7607    3.3690 C.3       10 UNK        -0.1982 
     62 C          35.3335   30.2819    5.5718 C.2       10 UNK         0.4970 
     63 O          35.9901   30.1123    6.5996 O.2       10 UNK        -0.4916 
     64 N          34.0386   29.9705    5.4533 N.am      11 UNK        -0.4279 
     65 CA         33.2303   29.2744    6.4671 C.3       11 UNK         0.1003 
     66 C          32.4513   30.2330    7.4137 C.2       11 UNK         0.5709 
     67 N          32.6913   31.5396    7.3844 N.am      11 UNK        -0.7358 
     68 O          31.6241   29.7861    8.2040 O.2       11 UNK        -0.4999 
     69 C69        32.3071   28.2143    5.8049 C.3       12 UNK        -0.0954 
     70 S70        33.2708   27.0009    4.8355 S.3       12 UNK        -0.2268 
     71 C71        32.6888   25.4119    5.4950 C.3       12 UNK         0.0203 
     72 H72        26.8263   21.7283   -5.4245 H         1 UNK         0.0888 
     73 H73        27.3895   23.3673   -5.7631 H         1 UNK         0.0888 
     74 H74        28.5555   22.0571   -5.5615 H         1 UNK         0.0888 
     75 H75        29.5549   22.0758   -3.5341 H         1 UNK         0.3017 
     76 H76        28.5459   23.6916   -1.4196 H         1 UNK         0.0873 
     77 H77        30.7216   21.6414   -0.8434 H         1 UNK         0.0745 
     78 H78        31.0655   22.9129   -1.9782 H         1 UNK         0.0745 
     79 H79        31.5981   22.2270    1.7166 H         1 UNK         0.0705 
     80 H80        29.8628   22.0912    1.5861 H         1 UNK         0.0705 
     81 H81        32.6140   23.8727    3.2552 H         1 UNK         0.1334 
     82 H82        30.0592   25.8863    6.0474 H         1 UNK         0.1417 
     83 H83        28.3552   23.6560    2.8039 H         1 UNK         0.1562 
     84 H84        27.7099   25.8655    5.8127 H         1 UNK         0.0748 
     85 H85        27.1538   24.2871    5.3136 H         1 UNK         0.0748 
     86 H86        28.4148   27.5664    3.9264 H         1 UNK         0.0940 
     87 H87        27.0038   28.2836    3.2000 H         1 UNK         0.0940 
     88 H88        28.8974   26.3335    1.7466 H         1 UNK         0.0703 
     89 H89        26.9989   28.0842    0.3476 H         1 UNK         0.3081 
     90 H90        25.2421   27.0596   -0.9171 H         1 UNK         0.0719 
     91 H91        27.2940   27.5918   -2.2309 H         1 UNK         0.0809 
     92 H92        27.5262   25.8919   -2.6151 H         1 UNK         0.0809 
     93 H93        26.1337   26.7616   -3.2547 H         1 UNK         0.0809 
     94 H94        25.7424   24.3276   -1.9647 H         1 UNK         0.2990 
     95 H95        22.7988   23.0072   -0.3662 H         1 UNK         0.0690 
     96 H96        24.0778   23.0093   -3.1543 H         1 UNK         0.0788 
     97 H97        22.4193   23.4313   -2.7666 H         1 UNK         0.0788 
     98 H98        22.9805   21.7851   -2.5247 H         1 UNK         0.0788 
     99 H99        25.5517   22.2419   -1.2081 H         1 UNK         0.2993 
    100 H100       26.5931   22.0521    2.1132 H         1 UNK         0.0949 
    101 H101       26.2487   19.5189    0.4407 H         1 UNK         0.0767 
    102 H102       27.5480   19.7806    1.6094 H         1 UNK         0.0767 
    103 H103       25.8732   19.7369    2.1383 H         1 UNK         0.0767 
    104 H104       27.5615   23.1878    0.4206 H         1 UNK         0.3013 
    105 H105       30.8276   27.4569    2.1392 H         1 UNK         0.3121 
    106 H106       31.2129   29.9765    0.6729 H         1 UNK         0.0774 
    107 H107       33.6070   29.5449    1.1085 H         1 UNK         0.0815 
    108 H108       33.2096   28.1912    2.1545 H         1 UNK         0.0815 
    109 H109       32.8487   28.1148    0.4315 H         1 UNK         0.0815 
    110 H110       29.4678   30.4706    2.6710 H         1 UNK         0.2987 
    111 H111       30.4936   31.1876    5.2189 H         1 UNK         0.0949 
    112 H112       28.0772   30.7973    4.7798 H         1 UNK         0.0806 
    113 H113       28.3144   32.4087    5.4360 H         1 UNK         0.0806 
    114 H114       28.0172   32.2026    3.7151 H         1 UNK         0.0806 
    115 H115       31.3374   33.0126    6.0167 H         1 UNK         0.3010 
    116 H116       32.4374   34.8853    6.2616 H         1 UNK         0.0829 
    117 H117       30.4078   36.1058    5.4856 H         1 UNK         0.0813 
    118 H118       31.8820   36.9449    5.0310 H         1 UNK         0.0813 
    119 H119       30.9883   36.0408    3.8219 H         1 UNK         0.0813 
    120 H120       32.5102   33.6957    2.9325 H         1 UNK         0.3038 
    121 H121       35.0257   34.8004    2.1557 H         1 UNK         0.0769 
    122 H122       33.3767   33.9392    0.5152 H         1 UNK         0.0811 
    123 H123       34.9031   33.0902    0.3320 H         1 UNK         0.0811 
    124 H124       33.5571   32.3022    1.1431 H         1 UNK         0.0811 
    125 H125       34.1663   31.6411    3.6171 H         1 UNK         0.3204 
    126 H126       36.9141   31.3911    4.6947 H         1 UNK         0.0748 
    127 H127       37.0340   30.1626    2.5344 H         1 UNK         0.0771 
    128 H128       37.0912   29.0297    3.8755 H         1 UNK         0.0771 
    129 H129       35.6026   29.2245    2.9587 H         1 UNK         0.0771 
    130 H130       33.5538   30.1540    4.5778 H         1 UNK         0.2980 
    131 H131       33.9058   28.7280    7.1276 H         1 UNK         0.0545 
    132 H132       33.4336   31.9010    6.8082 H         1 UNK         0.3459 
    133 H133       32.2265   32.1310    8.0551 H         1 UNK         0.3459 
    134 H134       31.7273   27.6876    6.5639 H         1 UNK         0.0616 
    135 H135       31.5802   28.6881    5.1450 H         1 UNK         0.0616 
    136 H136       32.4821   25.4915    6.5631 H         1 UNK         0.0634 
    137 H137       33.4941   24.6821    5.3988 H         1 UNK         0.0634 
@<TRIPOS>BOND
     1    1    2 1    
     2    1   72 1    
     3    1   73 1    
     4    1   74 1    
     5    2    3 2    
     6    2    4 am   BACKBONE|DICT|INTERRES
     7    4    5 1    
     8    4   75 1    
     9    5    6 1    
    10    5   35 1    
    11    5   76 1    
    12    6    7 1    
    13    6   77 1    
    14    6   78 1    
    15    7    8 1    
    16    8    9 1    
    17    8   79 1    
    18    8   80 1    
    19    9   10 ar   
    20    9   14 ar   
    21   10   11 ar   
    22   10   81 1    
    23   11   12 ar   
    24   11   71 1    
    25   12   13 ar   
    26   12   82 1    
    27   13   14 ar   
    28   13   15 1    
    29   14   83 1    
    30   15   16 1    
    31   15   84 1    
    32   15   85 1    
    33   16   17 1    
    34   17   18 1    
    35   17   86 1    
    36   17   87 1    
    37   18   19 1    
    38   18   37 1    
    39   18   88 1    
    40   19   20 am   BACKBONE|DICT|INTERRES
    41   19   89 1    
    42   20   21 2    
    43   20   22 1    
    44   22   23 1    
    45   22   24 1    
    46   22   90 1    
    47   23   91 1    
    48   23   92 1    
    49   23   93 1    
    50   24   25 am   BACKBONE|DICT|INTERRES
    51   24   94 1    
    52   25   26 2    
    53   25   27 1    
    54   27   28 1    
    55   27   29 1    
    56   27   95 1    
    57   28   96 1    
    58   28   97 1    
    59   28   98 1    
    60   29   30 am   BACKBONE|DICT|INTERRES
    61   29   99 1    
    62   30   31 2    
    63   30   32 1    
    64   32   33 1    
    65   32   34 1    
    66   32  100 1    
    67   33  101 1    
    68   33  102 1    
    69   33  103 1    
    70   34   35 am   BACKBONE|DICT|INTERRES
    71   34  104 1    
    72   35   36 2    
    73   37   38 2    
    74   37   39 am   BACKBONE|DICT|INTERRES
    75   39   40 1    
    76   39  105 1    
    77   40   41 1    
    78   40   42 1    
    79   40  106 1    
    80   41  107 1    
    81   41  108 1    
    82   41  109 1    
    83   42   43 2    
    84   42   44 am   BACKBONE|DICT|INTERRES
    85   44   45 1    
    86   44  110 1    
    87   45   46 1    
    88   45   47 1    
    89   45  111 1    
    90   46  112 1    
    91   46  113 1    
    92   46  114 1    
    93   47   48 2    
    94   47   49 am   BACKBONE|DICT|INTERRES
    95   49   50 1    
    96   49  115 1    
    97   50   51 1    
    98   50   52 1    
    99   50  116 1    
   100   51  117 1    
   101   51  118 1    
   102   51  119 1    
   103   52   53 2    
   104   52   54 am   BACKBONE|DICT|INTERRES
   105   54   55 1    
   106   54  120 1    
   107   55   56 1    
   108   55   57 1    
   109   55  121 1    
   110   56  122 1    
   111   56  123 1    
   112   56  124 1    
   113   57   58 2    
   114   57   59 am   BACKBONE|DICT|INTERRES
   115   59   60 1    
   116   59  125 1    
   117   60   61 1    
   118   60   62 1    
   119   60  126 1    
   120   61  127 1    
   121   61  128 1    
   122   61  129 1    
   123   62   63 2    
   124   62   64 am   BACKBONE|DICT|INTERRES
   125   64   65 1    
   126   64  130 1    
   127   65   66 1    
   128   65   69 1    
   129   65  131 1    
   130   66   67 am   BACKBONE|DICT|INTERRES
   131   66   68 2    
   132   67  132 1    
   133   67  133 1    
   134   69   70 1    
   135   69  134 1    
   136   69  135 1    
   137   70   71 1    
   138   71  136 1    
   139   71  137 1    
@<TRIPOS>SUBSTRUCTURE
     1 UNK         1 GROUP             0       ****    0 ROOT    
