@<TRIPOS>MOLECULE
3R136
137   139    1
SMALL
USER_CHARGES


@<TRIPOS>ATOM
      1 CA         25.3630   26.3237    4.0254 C.3       0 UNK        -0.1979 
      2 C          26.1492   25.0362    3.8284 C.2       0 UNK         0.4864 
      3 O          25.9020   24.0527    4.5275 O.2       0 UNK        -0.5359 
      4 N          27.0951   25.0411    2.8816 N.am      1 UNK        -0.4318 
      5 CA         27.9105   23.8918    2.4805 C.3       1 UNK         0.0824 
      6 C6         29.0885   24.3581    1.5927 C.3       12 UNK        -0.0944 
      7 S7         30.3975   23.1039    1.3825 S.3       12 UNK        -0.2672 
      8 C8         31.7839   23.8511    2.3078 C.3       12 UNK         0.0333 
      9 C9         32.5488   24.9629    1.5826 C.ar      12 UNK        -0.0807 
     10 C10        33.8508   25.2520    2.0029 C.ar      12 UNK        -0.0894 
     11 C11        34.5906   26.2751    1.4034 C.ar      12 UNK        -0.0804 
     12 C12        34.0120   27.0313    0.3800 C.ar      12 UNK        -0.0824 
     13 C13        32.7128   26.7568   -0.0582 C.ar      12 UNK        -0.0762 
     14 C14        31.9952   25.7165    0.5374 C.ar      12 UNK        -0.0782 
     15 C15        32.0950   27.5627   -1.1941 C.3       12 UNK         0.0230 
     16 S16        30.8221   28.7222   -0.5979 S.3       12 UNK        -0.2608 
     17 C17        29.2796   27.8479   -1.0380 C.3       12 UNK        -0.0989 
     18 CA         28.0203   28.6119   -0.5460 C.3       5 UNK         0.0716 
     19 N          26.8049   28.2970   -1.3011 N.am      5 UNK        -0.4135 
     20 C          26.2275   27.1021   -1.4853 C.2       4 UNK         0.5031 
     21 O          26.6564   26.0288   -1.0486 O.2       4 UNK        -0.5229 
     22 CA         24.9538   27.1187   -2.3432 C.3       4 UNK         0.0329 
     23 CB         25.2761   27.3895   -3.8247 C.3       4 UNK        -0.2001 
     24 N          24.2899   25.8273   -2.2236 N.am      4 UNK        -0.4303 
     25 C          22.9706   25.6066   -2.2402 C.2       3 UNK         0.5044 
     26 O          22.1328   26.4889   -2.4330 O.2       3 UNK        -0.5152 
     27 CA         22.4954   24.1567   -2.0065 C.3       3 UNK         0.0319 
     28 CB         21.9686   23.5456   -3.3157 C.3       3 UNK        -0.2001 
     29 N          23.5339   23.2776   -1.4560 N.am      3 UNK        -0.4354 
     30 C          24.0274   23.3601   -0.2130 C.2       2 UNK         0.4964 
     31 O          23.5972   24.1415    0.6379 O.2       2 UNK        -0.5047 
     32 CA         25.2206   22.4572    0.1324 C.3       2 UNK         0.0288 
     33 CB         25.9005   21.7935   -1.0867 C.3       2 UNK        -0.2113 
     34 N          26.1884   23.2684    0.8617 N.am      2 UNK        -0.4145 
     35 C          27.0534   22.8189    1.7774 C.2       1 UNK         0.5006 
     36 O          27.1706   21.6322    2.0908 O.2       1 UNK        -0.5103 
     37 C          27.8043   28.4537    0.9707 C.2       5 UNK         0.5055 
     38 O          27.7411   27.3322    1.4758 O.2       5 UNK        -0.5220 
     39 N          27.7660   29.5775    1.6969 N.am      6 UNK        -0.4450 
     40 CA         27.7336   29.6244    3.1635 C.3       6 UNK         0.0367 
     41 CB         27.0830   30.9476    3.6085 C.3       6 UNK        -0.1929 
     42 C          29.1420   29.4260    3.7613 C.2       6 UNK         0.5070 
     43 O          29.6004   30.2579    4.5462 O.2       6 UNK        -0.5237 
     44 N          29.8298   28.3577    3.3259 N.am      7 UNK        -0.4739 
     45 CA         31.2120   27.9813    3.6620 C.3       7 UNK         0.0276 
     46 CB         31.2688   27.4338    5.1032 C.3       7 UNK        -0.1927 
     47 C          32.2194   29.1239    3.4168 C.2       7 UNK         0.5013 
     48 O          33.0996   29.3626    4.2452 O.2       7 UNK        -0.5193 
     49 N          31.9978   29.8876    2.3351 N.am      8 UNK        -0.4253 
     50 CA         32.6916   31.1259    1.9469 C.3       8 UNK         0.0242 
     51 CB         34.1121   30.7930    1.4472 C.3       8 UNK        -0.2000 
     52 C          32.7131   32.2313    3.0301 C.2       8 UNK         0.4948 
     53 O          33.5071   33.1660    2.9143 O.2       8 UNK        -0.5275 
     54 N          31.8783   32.0924    4.0747 N.am      9 UNK        -0.4246 
     55 CA         31.8937   32.8329    5.3399 C.3       9 UNK         0.0261 
     56 CB         31.4315   34.2897    5.1233 C.3       9 UNK        -0.1959 
     57 C          33.2389   32.7338    6.0974 C.2       9 UNK         0.5033 
     58 O          33.5784   33.6622    6.8351 O.2       9 UNK        -0.5390 
     59 N          33.9896   31.6354    5.9070 N.am      10 UNK        -0.4215 
     60 CA         35.3523   31.4833    6.4325 C.3       10 UNK         0.0240 
     61 CB         36.3493   32.1990    5.5006 C.3       10 UNK        -0.1982 
     62 C          35.7932   30.0286    6.6582 C.2       10 UNK         0.4970 
     63 O          36.6281   29.7998    7.5347 O.2       10 UNK        -0.4916 
     64 N          35.2705   29.0765    5.8764 N.am      11 UNK        -0.4279 
     65 CA         35.6667   27.6589    5.9085 C.3       11 UNK         0.1003 
     66 C          35.0534   26.8468    7.0857 C.2       11 UNK         0.5709 
     67 N          34.0960   27.3791    7.8366 N.am      11 UNK        -0.7358 
     68 O          35.4619   25.7134    7.3275 O.2       11 UNK        -0.4999 
     69 C69        35.3956   26.9552    4.5514 C.3       12 UNK        -0.0954 
     70 S70        36.1444   27.8142    3.1265 S.3       12 UNK        -0.2268 
     71 C71        36.0273   26.5371    1.8368 C.3       12 UNK         0.0203 
     72 H72        25.6977   26.8358    4.9269 H         1 UNK         0.0888 
     73 H73        25.4809   27.0001    3.1790 H         1 UNK         0.0888 
     74 H74        24.3009   26.1036    4.1299 H         1 UNK         0.0888 
     75 H75        27.2587   25.8948    2.3455 H         1 UNK         0.3017 
     76 H76        28.3183   23.4487    3.3916 H         1 UNK         0.0873 
     77 H77        29.5358   25.2508    2.0325 H         1 UNK         0.0745 
     78 H78        28.7336   24.6647    0.6063 H         1 UNK         0.0745 
     79 H79        31.4164   24.2345    3.2608 H         1 UNK         0.0705 
     80 H80        32.4781   23.0453    2.5516 H         1 UNK         0.0705 
     81 H81        34.2959   24.6733    2.8010 H         1 UNK         0.1334 
     82 H82        34.5831   27.8225   -0.0856 H         1 UNK         0.1417 
     83 H83        31.0016   25.5085    0.1756 H         1 UNK         0.1562 
     84 H84        31.6735   26.8879   -1.9406 H         1 UNK         0.0748 
     85 H85        32.8656   28.1370   -1.7106 H         1 UNK         0.0748 
     86 H86        29.2990   26.8257   -0.6577 H         1 UNK         0.0940 
     87 H87        29.2557   27.7608   -2.1255 H         1 UNK         0.0940 
     88 H88        28.1879   29.6716   -0.7465 H         1 UNK         0.0703 
     89 H89        26.3434   29.0999   -1.7048 H         1 UNK         0.3081 
     90 H90        24.2982   27.9034   -1.9592 H         1 UNK         0.0719 
     91 H91        25.9493   26.6347   -4.2333 H         1 UNK         0.0809 
     92 H92        24.3706   27.3918   -4.4320 H         1 UNK         0.0809 
     93 H93        25.7538   28.3607   -3.9583 H         1 UNK         0.0809 
     94 H94        24.9130   25.0651   -1.9909 H         1 UNK         0.2990 
     95 H95        21.6705   24.1978   -1.2919 H         1 UNK         0.0690 
     96 H96        21.5626   22.5469   -3.1532 H         1 UNK         0.0788 
     97 H97        22.7518   23.4728   -4.0714 H         1 UNK         0.0788 
     98 H98        21.1664   24.1541   -3.7360 H         1 UNK         0.0788 
     99 H99        23.9457   22.6094   -2.0920 H         1 UNK         0.2993 
    100 H100       24.8391   21.6759    0.7934 H         1 UNK         0.0949 
    101 H101       25.2165   21.1278   -1.6145 H         1 UNK         0.0767 
    102 H102       26.2715   22.5337   -1.7971 H         1 UNK         0.0767 
    103 H103       26.7503   21.1846   -0.7773 H         1 UNK         0.0767 
    104 H104       26.1329   24.2662    0.6952 H         1 UNK         0.3013 
    105 H105       27.8537   30.4662    1.2242 H         1 UNK         0.3121 
    106 H106       27.1113   28.8095    3.5373 H         1 UNK         0.0774 
    107 H107       27.0009   30.9962    4.6953 H         1 UNK         0.0815 
    108 H108       26.0754   31.0499    3.2056 H         1 UNK         0.0815 
    109 H109       27.6641   31.8130    3.2872 H         1 UNK         0.0815 
    110 H110       29.3517   27.7538    2.6653 H         1 UNK         0.2987 
    111 H111       31.4962   27.1764    2.9851 H         1 UNK         0.0949 
    112 H112       31.0379   28.2070    5.8368 H         1 UNK         0.0806 
    113 H113       30.5615   26.6167    5.2437 H         1 UNK         0.0806 
    114 H114       32.2576   27.0456    5.3435 H         1 UNK         0.0806 
    115 H115       31.2479   29.6046    1.7184 H         1 UNK         0.3010 
    116 H116       32.1307   31.5386    1.1073 H         1 UNK         0.0829 
    117 H117       34.7403   30.4062    2.2500 H         1 UNK         0.0813 
    118 H118       34.0851   30.0490    0.6523 H         1 UNK         0.0813 
    119 H119       34.6079   31.6759    1.0422 H         1 UNK         0.0813 
    120 H120       31.2378   31.3030    4.0676 H         1 UNK         0.3038 
    121 H121       31.1559   32.3448    5.9784 H         1 UNK         0.0769 
    122 H122       31.2976   34.8047    6.0753 H         1 UNK         0.0811 
    123 H123       32.1566   34.8616    4.5436 H         1 UNK         0.0811 
    124 H124       30.4764   34.3285    4.5995 H         1 UNK         0.0811 
    125 H125       33.6324   30.8982    5.3044 H         1 UNK         0.3204 
    126 H126       35.4000   31.9612    7.4135 H         1 UNK         0.0748 
    127 H127       36.3095   31.7946    4.4881 H         1 UNK         0.0771 
    128 H128       36.1423   33.2677    5.4405 H         1 UNK         0.0771 
    129 H129       37.3739   32.0892    5.8588 H         1 UNK         0.0771 
    130 H130       34.5588   29.2969    5.1827 H         1 UNK         0.2980 
    131 H131       36.7465   27.6290    6.0662 H         1 UNK         0.0545 
    132 H132       33.7115   26.8452    8.5996 H         1 UNK         0.3459 
    133 H133       33.7592   28.3087    7.6470 H         1 UNK         0.3459 
    134 H134       35.7824   25.9348    4.5736 H         1 UNK         0.0616 
    135 H135       34.3245   26.8746    4.3691 H         1 UNK         0.0616 
    136 H136       36.4926   25.6168    2.1933 H         1 UNK         0.0634 
    137 H137       36.6161   26.8584    0.9765 H         1 UNK         0.0634 
@<TRIPOS>BOND
     1    1    2 1    
     2    1   72 1    
     3    1   73 1    
     4    1   74 1    
     5    2    3 2    
     6    2    4 am   BACKBONE|DICT|INTERRES
     7    4    5 1    
     8    4   75 1    
     9    5    6 1    
    10    5   35 1    
    11    5   76 1    
    12    6    7 1    
    13    6   77 1    
    14    6   78 1    
    15    7    8 1    
    16    8    9 1    
    17    8   79 1    
    18    8   80 1    
    19    9   10 ar   
    20    9   14 ar   
    21   10   11 ar   
    22   10   81 1    
    23   11   12 ar   
    24   11   71 1    
    25   12   13 ar   
    26   12   82 1    
    27   13   14 ar   
    28   13   15 1    
    29   14   83 1    
    30   15   16 1    
    31   15   84 1    
    32   15   85 1    
    33   16   17 1    
    34   17   18 1    
    35   17   86 1    
    36   17   87 1    
    37   18   19 1    
    38   18   37 1    
    39   18   88 1    
    40   19   20 am   BACKBONE|DICT|INTERRES
    41   19   89 1    
    42   20   21 2    
    43   20   22 1    
    44   22   23 1    
    45   22   24 1    
    46   22   90 1    
    47   23   91 1    
    48   23   92 1    
    49   23   93 1    
    50   24   25 am   BACKBONE|DICT|INTERRES
    51   24   94 1    
    52   25   26 2    
    53   25   27 1    
    54   27   28 1    
    55   27   29 1    
    56   27   95 1    
    57   28   96 1    
    58   28   97 1    
    59   28   98 1    
    60   29   30 am   BACKBONE|DICT|INTERRES
    61   29   99 1    
    62   30   31 2    
    63   30   32 1    
    64   32   33 1    
    65   32   34 1    
    66   32  100 1    
    67   33  101 1    
    68   33  102 1    
    69   33  103 1    
    70   34   35 am   BACKBONE|DICT|INTERRES
    71   34  104 1    
    72   35   36 2    
    73   37   38 2    
    74   37   39 am   BACKBONE|DICT|INTERRES
    75   39   40 1    
    76   39  105 1    
    77   40   41 1    
    78   40   42 1    
    79   40  106 1    
    80   41  107 1    
    81   41  108 1    
    82   41  109 1    
    83   42   43 2    
    84   42   44 am   BACKBONE|DICT|INTERRES
    85   44   45 1    
    86   44  110 1    
    87   45   46 1    
    88   45   47 1    
    89   45  111 1    
    90   46  112 1    
    91   46  113 1    
    92   46  114 1    
    93   47   48 2    
    94   47   49 am   BACKBONE|DICT|INTERRES
    95   49   50 1    
    96   49  115 1    
    97   50   51 1    
    98   50   52 1    
    99   50  116 1    
   100   51  117 1    
   101   51  118 1    
   102   51  119 1    
   103   52   53 2    
   104   52   54 am   BACKBONE|DICT|INTERRES
   105   54   55 1    
   106   54  120 1    
   107   55   56 1    
   108   55   57 1    
   109   55  121 1    
   110   56  122 1    
   111   56  123 1    
   112   56  124 1    
   113   57   58 2    
   114   57   59 am   BACKBONE|DICT|INTERRES
   115   59   60 1    
   116   59  125 1    
   117   60   61 1    
   118   60   62 1    
   119   60  126 1    
   120   61  127 1    
   121   61  128 1    
   122   61  129 1    
   123   62   63 2    
   124   62   64 am   BACKBONE|DICT|INTERRES
   125   64   65 1    
   126   64  130 1    
   127   65   66 1    
   128   65   69 1    
   129   65  131 1    
   130   66   67 am   BACKBONE|DICT|INTERRES
   131   66   68 2    
   132   67  132 1    
   133   67  133 1    
   134   69   70 1    
   135   69  134 1    
   136   69  135 1    
   137   70   71 1    
   138   71  136 1    
   139   71  137 1    
@<TRIPOS>SUBSTRUCTURE
     1 UNK         1 GROUP             0       ****    0 ROOT    
