@<TRIPOS>MOLECULE
3R136
137   139    1
SMALL
USER_CHARGES


@<TRIPOS>ATOM
      1 CA         29.1498   19.6371    0.0642 C.3       0 UNK        -0.1979 
      2 C          29.2503   20.5853   -1.1218 C.2       0 UNK         0.4864 
      3 O          28.9923   20.1787   -2.2560 O.2       0 UNK        -0.5359 
      4 N          29.6307   21.8430   -0.8677 N.am      1 UNK        -0.4318 
      5 CA         29.6923   22.9212   -1.8578 C.3       1 UNK         0.0824 
      6 C6         30.6217   24.0750   -1.3915 C.3       12 UNK        -0.0944 
      7 S7         30.2143   24.7500    0.2594 S.3       12 UNK        -0.2672 
      8 C8         31.6546   24.1844    1.2173 C.3       12 UNK         0.0333 
      9 C9         31.4187   24.3684    2.7060 C.ar      12 UNK        -0.0807 
     10 C10        31.9375   25.4782    3.3795 C.ar      12 UNK        -0.0894 
     11 C11        31.6939   25.6531    4.7458 C.ar      12 UNK        -0.0804 
     12 C12        30.9231   24.7138    5.4370 C.ar      12 UNK        -0.0824 
     13 C13        30.3923   23.6064    4.7682 C.ar      12 UNK        -0.0762 
     14 C14        30.6597   23.4291    3.4083 C.ar      12 UNK        -0.0782 
     15 C15        29.4774   22.6318    5.4926 C.3       12 UNK         0.0230 
     16 S16        27.7635   22.7645    4.8853 S.3       12 UNK        -0.2608 
     17 C17        27.3350   24.4819    5.3426 C.3       12 UNK        -0.0989 
     18 CA         27.5865   25.5201    4.2069 C.3       5 UNK         0.0716 
     19 N          26.9884   25.1618    2.9146 N.am      5 UNK        -0.4135 
     20 C          25.6864   24.9829    2.6571 C.2       4 UNK         0.5031 
     21 O          24.7948   25.0909    3.5013 O.2       4 UNK        -0.5229 
     22 CA         25.3324   24.6531    1.1928 C.3       4 UNK         0.0329 
     23 CB         23.8203   24.7654    0.9055 C.3       4 UNK        -0.2001 
     24 N          26.0911   25.4380    0.2075 N.am      4 UNK        -0.4303 
     25 C          26.1621   26.7781    0.1187 C.2       3 UNK         0.5044 
     26 O          25.6797   27.5396    0.9562 O.2       3 UNK        -0.5152 
     27 CA         26.9080   27.3934   -1.0831 C.3       3 UNK         0.0319 
     28 CB         28.1861   28.1061   -0.6162 C.3       3 UNK        -0.2001 
     29 N          27.2588   26.4254   -2.1229 N.am      3 UNK        -0.4354 
     30 C          26.3937   25.8550   -2.9744 C.2       2 UNK         0.4964 
     31 O          25.2047   26.1650   -3.0505 O.2       2 UNK        -0.5047 
     32 CA         26.9364   24.7256   -3.8736 C.3       2 UNK         0.0288 
     33 CB         27.1797   25.2450   -5.3003 C.3       2 UNK        -0.2113 
     34 N          28.1660   24.0914   -3.3769 N.am      2 UNK        -0.4145 
     35 C          28.2816   23.4364   -2.2116 C.2       1 UNK         0.5006 
     36 O          27.3485   23.2967   -1.4145 O.2       1 UNK        -0.5103 
     37 C          27.2706   26.9667    4.6573 C.2       5 UNK         0.5055 
     38 O          27.4620   27.2843    5.8324 O.2       5 UNK        -0.5220 
     39 N          26.8282   27.8296    3.7320 N.am      6 UNK        -0.4450 
     40 CA         26.5761   29.2537    3.9538 C.3       6 UNK         0.0367 
     41 CB         25.0666   29.5286    3.8177 C.3       6 UNK        -0.1929 
     42 C          27.4287   30.0878    2.9830 C.2       6 UNK         0.5070 
     43 O          26.9284   31.0356    2.3742 O.2       6 UNK        -0.5237 
     44 N          28.7062   29.7096    2.8410 N.am      7 UNK        -0.4739 
     45 CA         29.7003   30.4271    2.0408 C.3       7 UNK         0.0276 
     46 CB         30.8424   29.4606    1.6800 C.3       7 UNK        -0.1927 
     47 C          30.2406   31.6629    2.7842 C.2       7 UNK         0.5013 
     48 O          30.0022   31.8241    3.9838 O.2       7 UNK        -0.5193 
     49 N          30.9707   32.5078    2.0457 N.am      8 UNK        -0.4253 
     50 CA         31.6470   33.6999    2.5563 C.3       8 UNK         0.0242 
     51 CB         31.7035   34.7626    1.4384 C.3       8 UNK        -0.2000 
     52 C          33.0240   33.3234    3.1354 C.2       8 UNK         0.4948 
     53 O          33.0856   32.6858    4.1876 O.2       8 UNK        -0.5275 
     54 N          34.1079   33.7055    2.4442 N.am      9 UNK        -0.4246 
     55 CA         35.5056   33.5515    2.8717 C.3       9 UNK         0.0261 
     56 CB         36.4250   34.1918    1.8185 C.3       9 UNK        -0.1959 
     57 C          35.9575   32.1085    3.1697 C.2       9 UNK         0.5033 
     58 O          36.9128   31.9289    3.9264 O.2       9 UNK        -0.5390 
     59 N          35.2722   31.1127    2.5902 N.am      10 UNK        -0.4215 
     60 CA         35.4892   29.6914    2.8683 C.3       10 UNK         0.0240 
     61 CB         34.7791   28.8392    1.8040 C.3       10 UNK        -0.1982 
     62 C          35.0456   29.2742    4.2829 C.2       10 UNK         0.4970 
     63 O          35.6698   28.3790    4.8539 O.2       10 UNK        -0.4916 
     64 N          33.9957   29.9136    4.8183 N.am      11 UNK        -0.4279 
     65 CA         33.5076   29.7010    6.1903 C.3       11 UNK         0.1003 
     66 C          34.0242   30.7907    7.1672 C.2       11 UNK         0.5709 
     67 N          34.1977   32.0334    6.7337 N.am      11 UNK        -0.7358 
     68 O          34.2813   30.5010    8.3333 O.2       11 UNK        -0.4999 
     69 C69        31.9587   29.6059    6.2596 C.3       12 UNK        -0.0954 
     70 S70        31.1785   28.3133    5.2290 S.3       12 UNK        -0.2268 
     71 C71        32.2519   26.8655    5.4704 C.3       12 UNK         0.0203 
     72 H72        29.4128   20.1268    1.0018 H         1 UNK         0.0888 
     73 H73        28.1324   19.2573    0.1547 H         1 UNK         0.0888 
     74 H74        29.8197   18.7891   -0.0750 H         1 UNK         0.0888 
     75 H75        29.7822   22.1359    0.0859 H         1 UNK         0.3017 
     76 H76        30.1184   22.5043   -2.7733 H         1 UNK         0.0873 
     77 H77        30.6135   24.8977   -2.1088 H         1 UNK         0.0745 
     78 H78        31.6533   23.7196   -1.3870 H         1 UNK         0.0745 
     79 H79        31.8495   23.1315    1.0074 H         1 UNK         0.0705 
     80 H80        32.5408   24.7344    0.8964 H         1 UNK         0.0705 
     81 H81        32.5195   26.2134    2.8403 H         1 UNK         0.1334 
     82 H82        30.7135   24.8613    6.4877 H         1 UNK         0.1417 
     83 H83        30.2392   22.5791    2.8884 H         1 UNK         0.1562 
     84 H84        29.4955   22.8001    6.5706 H         1 UNK         0.0748 
     85 H85        29.8346   21.6135    5.3332 H         1 UNK         0.0748 
     86 H86        27.8990   24.7490    6.2382 H         1 UNK         0.0940 
     87 H87        26.2859   24.4970    5.6423 H         1 UNK         0.0940 
     88 H88        28.6568   25.5401    4.0095 H         1 UNK         0.0703 
     89 H89        27.6404   25.0471    2.1513 H         1 UNK         0.3081 
     90 H90        25.6211   23.6121    1.0391 H         1 UNK         0.0719 
     91 H91        23.5921   24.4954   -0.1256 H         1 UNK         0.0809 
     92 H92        23.4522   25.7777    1.0764 H         1 UNK         0.0809 
     93 H93        23.2474   24.0966    1.5491 H         1 UNK         0.0809 
     94 H94        26.5608   24.8831   -0.5023 H         1 UNK         0.2990 
     95 H95        26.2445   28.1407   -1.5234 H         1 UNK         0.0690 
     96 H96        28.6995   28.5920   -1.4459 H         1 UNK         0.0788 
     97 H97        28.8837   27.4136   -0.1458 H         1 UNK         0.0788 
     98 H98        27.9507   28.8807    0.1137 H         1 UNK         0.0788 
     99 H99        28.2184   26.1138   -2.1402 H         1 UNK         0.2993 
    100 H100       26.1638   23.9547   -3.9153 H         1 UNK         0.0949 
    101 H101       26.2753   25.6959   -5.7117 H         1 UNK         0.0767 
    102 H102       27.9627   26.0041   -5.3257 H         1 UNK         0.0767 
    103 H103       27.4702   24.4379   -5.9733 H         1 UNK         0.0767 
    104 H104       28.9784   24.1696   -3.9723 H         1 UNK         0.3013 
    105 H105       26.6546   27.5053    2.7856 H         1 UNK         0.3121 
    106 H106       26.8829   29.5492    4.9592 H         1 UNK         0.0774 
    107 H107       24.8382   30.5748    4.0244 H         1 UNK         0.0815 
    108 H108       24.7064   29.3065    2.8126 H         1 UNK         0.0815 
    109 H109       24.4905   28.9261    4.5200 H         1 UNK         0.0815 
    110 H110       29.0543   28.9647    3.4277 H         1 UNK         0.2987 
    111 H111       29.2244   30.7655    1.1176 H         1 UNK         0.0949 
    112 H112       31.4548   29.2197    2.5475 H         1 UNK         0.0806 
    113 H113       30.4671   28.5232    1.2711 H         1 UNK         0.0806 
    114 H114       31.5021   29.8957    0.9289 H         1 UNK         0.0806 
    115 H115       31.1227   32.2892    1.0716 H         1 UNK         0.3010 
    116 H116       31.0655   34.1201    3.3801 H         1 UNK         0.0829 
    117 H117       30.6987   35.0605    1.1376 H         1 UNK         0.0813 
    118 H118       32.2102   35.6676    1.7774 H         1 UNK         0.0813 
    119 H119       32.2165   34.4029    0.5455 H         1 UNK         0.0813 
    120 H120       33.9600   34.2147    1.5847 H         1 UNK         0.3038 
    121 H121       35.6158   34.1113    3.8028 H         1 UNK         0.0769 
    122 H122       37.4717   34.1229    2.1187 H         1 UNK         0.0811 
    123 H123       36.2002   35.2501    1.6836 H         1 UNK         0.0811 
    124 H124       36.3317   33.7006    0.8491 H         1 UNK         0.0811 
    125 H125       34.5151   31.3535    1.9681 H         1 UNK         0.3204 
    126 H126       36.5613   29.4960    2.7930 H         1 UNK         0.0748 
    127 H127       34.9502   27.7759    1.9785 H         1 UNK         0.0771 
    128 H128       33.7022   28.9989    1.8097 H         1 UNK         0.0771 
    129 H129       35.1478   29.0649    0.8032 H         1 UNK         0.0771 
    130 H130       33.5783   30.6932    4.3238 H         1 UNK         0.2980 
    131 H131       33.9045   28.7608    6.5749 H         1 UNK         0.0545 
    132 H132       33.9040   32.2952    5.7961 H         1 UNK         0.3459 
    133 H133       34.5399   32.7353    7.3695 H         1 UNK         0.3459 
    134 H134       31.6415   29.4275    7.2887 H         1 UNK         0.0616 
    135 H135       31.5144   30.5602    5.9702 H         1 UNK         0.0616 
    136 H136       32.3545   26.6626    6.5375 H         1 UNK         0.0634 
    137 H137       33.2515   27.0726    5.0909 H         1 UNK         0.0634 
@<TRIPOS>BOND
     1    1    2 1    
     2    1   72 1    
     3    1   73 1    
     4    1   74 1    
     5    2    3 2    
     6    2    4 am   BACKBONE|DICT|INTERRES
     7    4    5 1    
     8    4   75 1    
     9    5    6 1    
    10    5   35 1    
    11    5   76 1    
    12    6    7 1    
    13    6   77 1    
    14    6   78 1    
    15    7    8 1    
    16    8    9 1    
    17    8   79 1    
    18    8   80 1    
    19    9   10 ar   
    20    9   14 ar   
    21   10   11 ar   
    22   10   81 1    
    23   11   12 ar   
    24   11   71 1    
    25   12   13 ar   
    26   12   82 1    
    27   13   14 ar   
    28   13   15 1    
    29   14   83 1    
    30   15   16 1    
    31   15   84 1    
    32   15   85 1    
    33   16   17 1    
    34   17   18 1    
    35   17   86 1    
    36   17   87 1    
    37   18   19 1    
    38   18   37 1    
    39   18   88 1    
    40   19   20 am   BACKBONE|DICT|INTERRES
    41   19   89 1    
    42   20   21 2    
    43   20   22 1    
    44   22   23 1    
    45   22   24 1    
    46   22   90 1    
    47   23   91 1    
    48   23   92 1    
    49   23   93 1    
    50   24   25 am   BACKBONE|DICT|INTERRES
    51   24   94 1    
    52   25   26 2    
    53   25   27 1    
    54   27   28 1    
    55   27   29 1    
    56   27   95 1    
    57   28   96 1    
    58   28   97 1    
    59   28   98 1    
    60   29   30 am   BACKBONE|DICT|INTERRES
    61   29   99 1    
    62   30   31 2    
    63   30   32 1    
    64   32   33 1    
    65   32   34 1    
    66   32  100 1    
    67   33  101 1    
    68   33  102 1    
    69   33  103 1    
    70   34   35 am   BACKBONE|DICT|INTERRES
    71   34  104 1    
    72   35   36 2    
    73   37   38 2    
    74   37   39 am   BACKBONE|DICT|INTERRES
    75   39   40 1    
    76   39  105 1    
    77   40   41 1    
    78   40   42 1    
    79   40  106 1    
    80   41  107 1    
    81   41  108 1    
    82   41  109 1    
    83   42   43 2    
    84   42   44 am   BACKBONE|DICT|INTERRES
    85   44   45 1    
    86   44  110 1    
    87   45   46 1    
    88   45   47 1    
    89   45  111 1    
    90   46  112 1    
    91   46  113 1    
    92   46  114 1    
    93   47   48 2    
    94   47   49 am   BACKBONE|DICT|INTERRES
    95   49   50 1    
    96   49  115 1    
    97   50   51 1    
    98   50   52 1    
    99   50  116 1    
   100   51  117 1    
   101   51  118 1    
   102   51  119 1    
   103   52   53 2    
   104   52   54 am   BACKBONE|DICT|INTERRES
   105   54   55 1    
   106   54  120 1    
   107   55   56 1    
   108   55   57 1    
   109   55  121 1    
   110   56  122 1    
   111   56  123 1    
   112   56  124 1    
   113   57   58 2    
   114   57   59 am   BACKBONE|DICT|INTERRES
   115   59   60 1    
   116   59  125 1    
   117   60   61 1    
   118   60   62 1    
   119   60  126 1    
   120   61  127 1    
   121   61  128 1    
   122   61  129 1    
   123   62   63 2    
   124   62   64 am   BACKBONE|DICT|INTERRES
   125   64   65 1    
   126   64  130 1    
   127   65   66 1    
   128   65   69 1    
   129   65  131 1    
   130   66   67 am   BACKBONE|DICT|INTERRES
   131   66   68 2    
   132   67  132 1    
   133   67  133 1    
   134   69   70 1    
   135   69  134 1    
   136   69  135 1    
   137   70   71 1    
   138   71  136 1    
   139   71  137 1    
@<TRIPOS>SUBSTRUCTURE
     1 UNK         1 GROUP             0       ****    0 ROOT    
