@<TRIPOS>MOLECULE
3R136
137   139    1
SMALL
USER_CHARGES


@<TRIPOS>ATOM
      1 CA         30.6728   26.0011   -4.1991 C.3       0 UNK        -0.1979 
      2 C          30.0677   26.2492   -2.8263 C.2       0 UNK         0.4864 
      3 O          29.7673   27.3938   -2.4897 O.2       0 UNK        -0.5359 
      4 N          29.8881   25.1848   -2.0313 N.am      1 UNK        -0.4318 
      5 CA         29.3597   25.2373   -0.6610 C.3       1 UNK         0.0824 
      6 C6         29.5982   23.9193    0.1191 C.3       12 UNK        -0.0944 
      7 S7         31.3408   23.3834    0.0691 S.3       12 UNK        -0.2672 
      8 C8         31.4592   22.3205    1.5407 C.3       12 UNK         0.0333 
      9 C9         31.7419   23.1114    2.8106 C.ar      12 UNK        -0.0807 
     10 C10        32.9665   23.7724    2.9646 C.ar      12 UNK        -0.0894 
     11 C11        33.2632   24.4480    4.1513 C.ar      12 UNK        -0.0804 
     12 C12        32.3299   24.4502    5.1903 C.ar      12 UNK        -0.0824 
     13 C13        31.0957   23.8147    5.0433 C.ar      12 UNK        -0.0762 
     14 C14        30.8066   23.1415    3.8515 C.ar      12 UNK        -0.0782 
     15 C15        30.0966   23.8426    6.1922 C.3       12 UNK         0.0230 
     16 S16        28.5550   24.7205    5.7809 S.3       12 UNK        -0.2608 
     17 C17        29.1347   26.3548    5.1954 C.3       12 UNK        -0.0989 
     18 CA         28.8270   26.5508    3.6850 C.3       5 UNK         0.0716 
     19 N          27.4115   26.3496    3.3440 N.am      5 UNK        -0.4135 
     20 C          26.3690   27.0852    3.7598 C.2       4 UNK         0.5031 
     21 O          26.4593   28.0085    4.5693 O.2       4 UNK        -0.5229 
     22 CA         24.9906   26.7607    3.1581 C.3       4 UNK         0.0329 
     23 CB         24.4054   27.9939    2.4461 C.3       4 UNK        -0.2001 
     24 N          25.0476   25.6590    2.1942 N.am      4 UNK        -0.4303 
     25 C          24.3113   24.5407    2.2370 C.2       3 UNK         0.5044 
     26 O          23.5307   24.2758    3.1519 O.2       3 UNK        -0.5152 
     27 CA         24.4780   23.5391    1.0697 C.3       3 UNK         0.0319 
     28 CB         23.1488   22.8531    0.6892 C.3       3 UNK        -0.2001 
     29 N          25.1364   24.1069   -0.1170 N.am      3 UNK        -0.4354 
     30 C          24.7142   25.1305   -0.8778 C.2       2 UNK         0.4964 
     31 O          23.6105   25.6622   -0.7549 O.2       2 UNK        -0.5047 
     32 CA         25.7078   25.6839   -1.9224 C.3       2 UNK         0.0288 
     33 CB         25.5699   27.2131   -2.0860 C.3       2 UNK        -0.2113 
     34 N          27.1182   25.3345   -1.6835 N.am      2 UNK        -0.4145 
     35 C          27.8688   25.6300   -0.6083 C.2       1 UNK         0.5006 
     36 O          27.4311   26.1728    0.4093 O.2       1 UNK        -0.5103 
     37 C          29.3409   27.8888    3.1041 C.2       5 UNK         0.5055 
     38 O          30.0870   28.6181    3.7591 O.2       5 UNK        -0.5220 
     39 N          28.9130   28.1870    1.8692 N.am      6 UNK        -0.4450 
     40 CA         29.1601   29.4439    1.1605 C.3       6 UNK         0.0367 
     41 CB         28.0075   29.6715    0.1673 C.3       6 UNK        -0.1929 
     42 C          30.5135   29.5019    0.4291 C.2       6 UNK         0.5070 
     43 O          30.8254   30.5412   -0.1532 O.2       6 UNK        -0.5237 
     44 N          31.2979   28.4135    0.4639 N.am      7 UNK        -0.4739 
     45 CA         32.5398   28.2266   -0.3029 C.3       7 UNK         0.0276 
     46 CB         33.0621   26.7985   -0.0819 C.3       7 UNK        -0.1927 
     47 C          33.6487   29.2611   -0.0316 C.2       7 UNK         0.5013 
     48 O          34.4941   29.4801   -0.8997 O.2       7 UNK        -0.5193 
     49 N          33.6048   29.8935    1.1443 N.am      8 UNK        -0.4253 
     50 CA         34.4332   31.0326    1.5303 C.3       8 UNK         0.0242 
     51 CB         35.5858   30.5499    2.4306 C.3       8 UNK        -0.2000 
     52 C          33.5486   32.0963    2.1995 C.2       8 UNK         0.4948 
     53 O          33.9406   32.6635    3.2206 O.2       8 UNK        -0.5275 
     54 N          32.3383   32.3037    1.6531 N.am      9 UNK        -0.4246 
     55 CA         31.2365   33.1550    2.1327 C.3       9 UNK         0.0261 
     56 CB         31.6487   34.6372    2.2255 C.3       9 UNK        -0.1959 
     57 C          30.5993   32.6625    3.4454 C.2       9 UNK         0.5033 
     58 O          29.3768   32.5382    3.5155 O.2       9 UNK        -0.5390 
     59 N          31.4382   32.3647    4.4387 N.am      10 UNK        -0.4215 
     60 CA         31.1037   31.7179    5.6993 C.3       10 UNK         0.0240 
     61 CB         30.9160   32.7810    6.7986 C.3       10 UNK        -0.1982 
     62 C          32.2421   30.7348    5.9908 C.2       10 UNK         0.4970 
     63 O          33.1237   31.0278    6.8000 O.2       10 UNK        -0.4916 
     64 N          32.2358   29.6147    5.2609 N.am      11 UNK        -0.4279 
     65 CA         33.2538   28.5568    5.3214 C.3       11 UNK         0.1003 
     66 C          33.2578   27.7619    6.6590 C.2       11 UNK         0.5709 
     67 N          32.1419   27.6751    7.3739 N.am      11 UNK        -0.7358 
     68 O          34.2892   27.2355    7.0658 O.2       11 UNK        -0.4999 
     69 C69        33.1166   27.6267    4.0864 C.3       12 UNK        -0.0954 
     70 S70        34.6578   26.8098    3.5483 S.3       12 UNK        -0.2268 
     71 C71        34.5961   25.1620    4.3332 C.3       12 UNK         0.0203 
     72 H72        31.6232   26.5272   -4.2883 H         1 UNK         0.0888 
     73 H73        30.8527   24.9411   -4.3802 H         1 UNK         0.0888 
     74 H74        30.0034   26.3698   -4.9767 H         1 UNK         0.0888 
     75 H75        30.1839   24.2719   -2.3477 H         1 UNK         0.3017 
     76 H76        29.9018   26.0280   -0.1418 H         1 UNK         0.0873 
     77 H77        28.9871   23.1104   -0.2857 H         1 UNK         0.0745 
     78 H78        29.3015   24.0394    1.1628 H         1 UNK         0.0745 
     79 H79        30.5489   21.7266    1.6368 H         1 UNK         0.0705 
     80 H80        32.2707   21.6079    1.3876 H         1 UNK         0.0705 
     81 H81        33.6911   23.7546    2.1618 H         1 UNK         0.1334 
     82 H82        32.5632   24.9595    6.1149 H         1 UNK         0.1417 
     83 H83        29.8582   22.6328    3.7441 H         1 UNK         0.1562 
     84 H84        30.5337   24.3075    7.0774 H         1 UNK         0.0748 
     85 H85        29.8528   22.8181    6.4765 H         1 UNK         0.0748 
     86 H86        30.2030   26.4555    5.3881 H         1 UNK         0.0940 
     87 H87        28.6508   27.1287    5.7930 H         1 UNK         0.0940 
     88 H88        29.3766   25.7779    3.1454 H         1 UNK         0.0703 
     89 H89        27.2274   25.6233    2.6688 H         1 UNK         0.3081 
     90 H90        24.3393   26.5028    3.9954 H         1 UNK         0.0719 
     91 H91        24.3127   28.8389    3.1296 H         1 UNK         0.0809 
     92 H92        25.0338   28.3122    1.6133 H         1 UNK         0.0809 
     93 H93        23.4103   27.7866    2.0520 H         1 UNK         0.0809 
     94 H94        25.6592   25.7986    1.3973 H         1 UNK         0.2990 
     95 H95        25.1500   22.7643    1.4411 H         1 UNK         0.0690 
     96 H96        23.2869   22.1452   -0.1280 H         1 UNK         0.0788 
     97 H97        22.3918   23.5755    0.3835 H         1 UNK         0.0788 
     98 H98        22.7402   22.2950    1.5324 H         1 UNK         0.0788 
     99 H99        26.0527   23.7343   -0.3200 H         1 UNK         0.2993 
    100 H100       25.4326   25.2211   -2.8713 H         1 UNK         0.0949 
    101 H101       25.7381   27.7358   -1.1438 H         1 UNK         0.0767 
    102 H102       26.2817   27.6007   -2.8150 H         1 UNK         0.0767 
    103 H103       24.5725   27.4843   -2.4341 H         1 UNK         0.0767 
    104 H104       27.5813   24.8655   -2.4497 H         1 UNK         0.3013 
    105 H105       28.2998   27.5250    1.4003 H         1 UNK         0.3121 
    106 H106       29.1495   30.2603    1.8856 H         1 UNK         0.0774 
    107 H107       27.9864   28.9023   -0.6066 H         1 UNK         0.0815 
    108 H108       27.0407   29.6699    0.6711 H         1 UNK         0.0815 
    109 H109       28.1069   30.6347   -0.3351 H         1 UNK         0.0815 
    110 H110       30.9725   27.6212    0.9950 H         1 UNK         0.2987 
    111 H111       32.2796   28.3295   -1.3586 H         1 UNK         0.0949 
    112 H112       33.1861   26.5677    0.9759 H         1 UNK         0.0806 
    113 H113       32.3821   26.0638   -0.5090 H         1 UNK         0.0806 
    114 H114       34.0294   26.6507   -0.5642 H         1 UNK         0.0806 
    115 H115       32.8628   29.6438    1.7816 H         1 UNK         0.3010 
    116 H116       34.8609   31.5029    0.6426 H         1 UNK         0.0829 
    117 H117       35.2155   30.1125    3.3570 H         1 UNK         0.0813 
    118 H118       36.2474   31.3740    2.6987 H         1 UNK         0.0813 
    119 H119       36.1924   29.7983    1.9265 H         1 UNK         0.0813 
    120 H120       32.0933   31.7466    0.8386 H         1 UNK         0.3038 
    121 H121       30.4628   33.0819    1.3665 H         1 UNK         0.0769 
    122 H122       32.0401   34.9987    1.2748 H         1 UNK         0.0811 
    123 H123       32.4090   34.8084    2.9876 H         1 UNK         0.0811 
    124 H124       30.7918   35.2613    2.4813 H         1 UNK         0.0811 
    125 H125       32.4332   32.4902    4.2511 H         1 UNK         0.3204 
    126 H126       30.1789   31.1449    5.5981 H         1 UNK         0.0748 
    127 H127       31.8044   33.4028    6.9178 H         1 UNK         0.0771 
    128 H128       30.0775   33.4389    6.5697 H         1 UNK         0.0771 
    129 H129       30.7094   32.3134    7.7621 H         1 UNK         0.0771 
    130 H130       31.4397   29.4214    4.6550 H         1 UNK         0.2980 
    131 H131       34.2212   29.0575    5.2596 H         1 UNK         0.0545 
    132 H132       32.1565   27.1783    8.2501 H         1 UNK         0.3459 
    133 H133       31.2990   28.1290    7.0644 H         1 UNK         0.3459 
    134 H134       32.8110   28.2198    3.2253 H         1 UNK         0.0616 
    135 H135       32.3061   26.9132    4.2160 H         1 UNK         0.0616 
    136 H136       34.8306   25.2627    5.3931 H         1 UNK         0.0634 
    137 H137       35.3940   24.5493    3.9116 H         1 UNK         0.0634 
@<TRIPOS>BOND
     1    1    2 1    
     2    1   72 1    
     3    1   73 1    
     4    1   74 1    
     5    2    3 2    
     6    2    4 am   BACKBONE|DICT|INTERRES
     7    4    5 1    
     8    4   75 1    
     9    5    6 1    
    10    5   35 1    
    11    5   76 1    
    12    6    7 1    
    13    6   77 1    
    14    6   78 1    
    15    7    8 1    
    16    8    9 1    
    17    8   79 1    
    18    8   80 1    
    19    9   10 ar   
    20    9   14 ar   
    21   10   11 ar   
    22   10   81 1    
    23   11   12 ar   
    24   11   71 1    
    25   12   13 ar   
    26   12   82 1    
    27   13   14 ar   
    28   13   15 1    
    29   14   83 1    
    30   15   16 1    
    31   15   84 1    
    32   15   85 1    
    33   16   17 1    
    34   17   18 1    
    35   17   86 1    
    36   17   87 1    
    37   18   19 1    
    38   18   37 1    
    39   18   88 1    
    40   19   20 am   BACKBONE|DICT|INTERRES
    41   19   89 1    
    42   20   21 2    
    43   20   22 1    
    44   22   23 1    
    45   22   24 1    
    46   22   90 1    
    47   23   91 1    
    48   23   92 1    
    49   23   93 1    
    50   24   25 am   BACKBONE|DICT|INTERRES
    51   24   94 1    
    52   25   26 2    
    53   25   27 1    
    54   27   28 1    
    55   27   29 1    
    56   27   95 1    
    57   28   96 1    
    58   28   97 1    
    59   28   98 1    
    60   29   30 am   BACKBONE|DICT|INTERRES
    61   29   99 1    
    62   30   31 2    
    63   30   32 1    
    64   32   33 1    
    65   32   34 1    
    66   32  100 1    
    67   33  101 1    
    68   33  102 1    
    69   33  103 1    
    70   34   35 am   BACKBONE|DICT|INTERRES
    71   34  104 1    
    72   35   36 2    
    73   37   38 2    
    74   37   39 am   BACKBONE|DICT|INTERRES
    75   39   40 1    
    76   39  105 1    
    77   40   41 1    
    78   40   42 1    
    79   40  106 1    
    80   41  107 1    
    81   41  108 1    
    82   41  109 1    
    83   42   43 2    
    84   42   44 am   BACKBONE|DICT|INTERRES
    85   44   45 1    
    86   44  110 1    
    87   45   46 1    
    88   45   47 1    
    89   45  111 1    
    90   46  112 1    
    91   46  113 1    
    92   46  114 1    
    93   47   48 2    
    94   47   49 am   BACKBONE|DICT|INTERRES
    95   49   50 1    
    96   49  115 1    
    97   50   51 1    
    98   50   52 1    
    99   50  116 1    
   100   51  117 1    
   101   51  118 1    
   102   51  119 1    
   103   52   53 2    
   104   52   54 am   BACKBONE|DICT|INTERRES
   105   54   55 1    
   106   54  120 1    
   107   55   56 1    
   108   55   57 1    
   109   55  121 1    
   110   56  122 1    
   111   56  123 1    
   112   56  124 1    
   113   57   58 2    
   114   57   59 am   BACKBONE|DICT|INTERRES
   115   59   60 1    
   116   59  125 1    
   117   60   61 1    
   118   60   62 1    
   119   60  126 1    
   120   61  127 1    
   121   61  128 1    
   122   61  129 1    
   123   62   63 2    
   124   62   64 am   BACKBONE|DICT|INTERRES
   125   64   65 1    
   126   64  130 1    
   127   65   66 1    
   128   65   69 1    
   129   65  131 1    
   130   66   67 am   BACKBONE|DICT|INTERRES
   131   66   68 2    
   132   67  132 1    
   133   67  133 1    
   134   69   70 1    
   135   69  134 1    
   136   69  135 1    
   137   70   71 1    
   138   71  136 1    
   139   71  137 1    
@<TRIPOS>SUBSTRUCTURE
     1 UNK         1 GROUP             0       ****    0 ROOT    
