@<TRIPOS>MOLECULE
3R136
137   139    1
SMALL
USER_CHARGES


@<TRIPOS>ATOM
      1 CA         30.5829   23.3987    4.6375 C.3       0 UNK        -0.1979 
      2 C          31.1425   23.5039    3.2279 C.2       0 UNK         0.4864 
      3 O          31.5480   22.4899    2.6587 O.2       0 UNK        -0.5359 
      4 N          31.1879   24.7268    2.6806 N.am      1 UNK        -0.4318 
      5 CA         31.7001   25.0324    1.3440 C.3       1 UNK         0.0824 
      6 C6         32.3700   26.4395    1.2856 C.3       12 UNK        -0.0944 
      7 S7         31.2977   27.9215    1.4008 S.3       12 UNK        -0.2672 
      8 C8         31.5173   28.5084    3.1116 C.3       12 UNK         0.0333 
      9 C9         30.7092   27.7422    4.1525 C.ar      12 UNK        -0.0807 
     10 C10        31.2090   27.6289    5.4506 C.ar      12 UNK        -0.0894 
     11 C11        30.5296   26.8847    6.4230 C.ar      12 UNK        -0.0804 
     12 C12        29.2909   26.3193    6.0981 C.ar      12 UNK        -0.0824 
     13 C13        28.7547   26.4614    4.8142 C.ar      12 UNK        -0.0762 
     14 C14        29.4706   27.1708    3.8489 C.ar      12 UNK        -0.0782 
     15 C15        27.4270   25.8107    4.4528 C.3       12 UNK         0.0230 
     16 S16        25.9943   26.8369    4.9154 S.3       12 UNK        -0.2608 
     17 C17        26.1070   28.2898    3.8070 C.3       12 UNK        -0.0989 
     18 CA         26.1409   27.9699    2.2848 C.3       5 UNK         0.0716 
     19 N          25.1285   27.0068    1.8496 N.am      5 UNK        -0.4135 
     20 C          23.8007   27.1867    1.7920 C.2       4 UNK         0.5031 
     21 O          23.2288   28.1979    2.2027 O.2       4 UNK        -0.5229 
     22 CA         22.9681   26.0477    1.1575 C.3       4 UNK         0.0329 
     23 CB         21.7966   26.5908    0.3113 C.3       4 UNK        -0.2001 
     24 N          23.7607   25.0780    0.3816 N.am      4 UNK        -0.4303 
     25 C          24.5270   25.3362   -0.6886 C.2       3 UNK         0.5044 
     26 O          24.6306   26.4456   -1.2177 O.2       3 UNK        -0.5152 
     27 CA         25.3739   24.1655   -1.2145 C.3       3 UNK         0.0319 
     28 CB         24.7237   23.5480   -2.4624 C.3       3 UNK        -0.2001 
     29 N          26.7385   24.5920   -1.5379 N.am      3 UNK        -0.4354 
     30 C          27.6027   25.1406   -0.6717 C.2       2 UNK         0.4964 
     31 O          27.3703   25.2993    0.5309 O.2       2 UNK        -0.5047 
     32 CA         28.9165   25.6571   -1.2798 C.3       2 UNK         0.0288 
     33 CB         28.6979   27.0494   -1.8950 C.3       2 UNK        -0.2113 
     34 N          29.9898   25.7479   -0.2904 N.am      2 UNK        -0.4145 
     35 C          30.6392   24.7158    0.2586 C.2       1 UNK         0.5006 
     36 O          30.4402   23.5464   -0.0773 O.2       1 UNK        -0.5103 
     37 C          26.1632   29.2359    1.3972 C.2       5 UNK         0.5055 
     38 O          26.3818   30.3379    1.9016 O.2       5 UNK        -0.5220 
     39 N          25.9430   29.0655    0.0843 N.am      6 UNK        -0.4450 
     40 CA         25.8647   30.1397   -0.9131 C.3       6 UNK         0.0367 
     41 CB         24.9984   29.6496   -2.0885 C.3       6 UNK        -0.1929 
     42 C          27.2395   30.6710   -1.3818 C.2       6 UNK         0.5070 
     43 O          27.3932   31.0040   -2.5581 O.2       6 UNK        -0.5237 
     44 N          28.2156   30.7522   -0.4721 N.am      7 UNK        -0.4739 
     45 CA         29.5707   31.2598   -0.6878 C.3       7 UNK         0.0276 
     46 CB         30.4010   30.2576   -1.5171 C.3       7 UNK        -0.1927 
     47 C          30.2160   31.5382    0.6786 C.2       7 UNK         0.5013 
     48 O          29.6078   31.2452    1.7114 O.2       7 UNK        -0.5193 
     49 N          31.4337   32.0912    0.6626 N.am      8 UNK        -0.4253 
     50 CA         32.2607   32.3295    1.8438 C.3       8 UNK         0.0242 
     51 CB         32.4405   33.8434    2.0483 C.3       8 UNK        -0.2000 
     52 C          33.6145   31.6424    1.6321 C.2       8 UNK         0.4948 
     53 O          34.2077   31.7964    0.5617 O.2       8 UNK        -0.5275 
     54 N          34.0743   30.9182    2.6566 N.am      9 UNK        -0.4246 
     55 CA         35.3151   30.1482    2.7314 C.3       9 UNK         0.0261 
     56 CB         35.3475   29.0332    1.6635 C.3       9 UNK        -0.1959 
     57 C          35.3903   29.5473    4.1426 C.2       9 UNK         0.5033 
     58 O          34.3970   29.5884    4.8755 O.2       9 UNK        -0.5390 
     59 N          36.5389   28.9579    4.4971 N.am      10 UNK        -0.4215 
     60 CA         36.8091   28.3260    5.7976 C.3       10 UNK         0.0240 
     61 CB         38.3339   28.2769    6.0158 C.3       10 UNK        -0.1982 
     62 C          36.1406   26.9418    5.9798 C.2       10 UNK         0.4970 
     63 O          36.7679   26.0253    6.5134 O.2       10 UNK        -0.4916 
     64 N          34.8839   26.8184    5.5357 N.am      11 UNK        -0.4279 
     65 CA         34.0100   25.6354    5.6491 C.3       11 UNK         0.1003 
     66 C          34.5294   24.3570    4.9237 C.2       11 UNK         0.5709 
     67 N          35.3797   24.4810    3.9113 N.am      11 UNK        -0.7358 
     68 O          34.1376   23.2417    5.2574 O.2       11 UNK        -0.4999 
     69 C69        33.5345   25.3618    7.1093 C.3       12 UNK        -0.0954 
     70 S70        32.9085   26.8412    7.9858 S.3       12 UNK        -0.2268 
     71 C71        31.0918   26.6820    7.8318 C.3       12 UNK         0.0203 
     72 H72        30.9512   24.2112    5.2616 H         1 UNK         0.0888 
     73 H73        29.4943   23.4309    4.6198 H         1 UNK         0.0888 
     74 H74        30.8897   22.4621    5.1027 H         1 UNK         0.0888 
     75 H75        30.8177   25.5153    3.1942 H         1 UNK         0.3017 
     76 H76        32.5123   24.3282    1.1478 H         1 UNK         0.0873 
     77 H77        32.9252   26.5265    0.3499 H         1 UNK         0.0745 
     78 H78        33.1284   26.4972    2.0675 H         1 UNK         0.0745 
     79 H79        31.2199   29.5555    3.1589 H         1 UNK         0.0705 
     80 H80        32.5781   28.4733    3.3540 H         1 UNK         0.0705 
     81 H81        32.1486   28.1061    5.6912 H         1 UNK         0.1334 
     82 H82        28.7449   25.7568    6.8435 H         1 UNK         0.1417 
     83 H83        29.0701   27.2687    2.8524 H         1 UNK         0.1562 
     84 H84        27.3423   24.8550    4.9720 H         1 UNK         0.0748 
     85 H85        27.3886   25.5695    3.3899 H         1 UNK         0.0748 
     86 H86        26.9919   28.8627    4.0911 H         1 UNK         0.0940 
     87 H87        25.2537   28.9328    4.0311 H         1 UNK         0.0940 
     88 H88        27.0878   27.4832    2.0691 H         1 UNK         0.0703 
     89 H89        25.5054   26.1450    1.4758 H         1 UNK         0.3081 
     90 H90        22.5418   25.4906    1.9930 H         1 UNK         0.0719 
     91 H91        21.2096   25.7806   -0.1209 H         1 UNK         0.0809 
     92 H92        22.1460   27.2247   -0.5044 H         1 UNK         0.0809 
     93 H93        21.1181   27.1907    0.9191 H         1 UNK         0.0809 
     94 H94        23.7584   24.1341    0.7447 H         1 UNK         0.2990 
     95 H95        25.4433   23.3985   -0.4403 H         1 UNK         0.0690 
     96 H96        25.2913   22.6904   -2.8243 H         1 UNK         0.0788 
     97 H97        24.6484   24.2703   -3.2767 H         1 UNK         0.0788 
     98 H98        23.7139   23.1978   -2.2440 H         1 UNK         0.0788 
     99 H99        26.9983   24.5446   -2.5122 H         1 UNK         0.2993 
    100 H100       29.2317   24.9660   -2.0647 H         1 UNK         0.0949 
    101 H101       28.4276   27.7845   -1.1361 H         1 UNK         0.0767 
    102 H102       29.5960   27.4023   -2.4018 H         1 UNK         0.0767 
    103 H103       27.8960   27.0376   -2.6347 H         1 UNK         0.0767 
    104 H104       30.2077   26.6707    0.0652 H         1 UNK         0.3013 
    105 H105       25.7478   28.1315   -0.2580 H         1 UNK         0.3121 
    106 H106       25.3470   30.9874   -0.4594 H         1 UNK         0.0774 
    107 H107       24.8239   30.4471   -2.8119 H         1 UNK         0.0815 
    108 H108       25.4739   28.8233   -2.6185 H         1 UNK         0.0815 
    109 H109       24.0213   29.3075   -1.7464 H         1 UNK         0.0815 
    110 H110       28.0002   30.5529    0.5015 H         1 UNK         0.2987 
    111 H111       29.5047   32.2090   -1.2239 H         1 UNK         0.0949 
    112 H112       29.9560   30.0798   -2.4958 H         1 UNK         0.0806 
    113 H113       31.4130   30.6233   -1.6932 H         1 UNK         0.0806 
    114 H114       30.4869   29.2966   -1.0131 H         1 UNK         0.0806 
    115 H115       31.8974   32.2464   -0.2227 H         1 UNK         0.3010 
    116 H116       31.7888   31.9141    2.7367 H         1 UNK         0.0829 
    117 H117       31.4813   34.3366    2.2068 H         1 UNK         0.0813 
    118 H118       33.0596   34.0484    2.9226 H         1 UNK         0.0813 
    119 H119       32.9209   34.3140    1.1894 H         1 UNK         0.0813 
    120 H120       33.5420   30.8644    3.5184 H         1 UNK         0.3038 
    121 H121       36.1599   30.8255    2.5933 H         1 UNK         0.0769 
    122 H122       34.4738   28.3883    1.7328 H         1 UNK         0.0811 
    123 H123       35.3750   29.4422    0.6540 H         1 UNK         0.0811 
    124 H124       36.2301   28.4013    1.7670 H         1 UNK         0.0811 
    125 H125       37.2949   28.9360    3.8272 H         1 UNK         0.3204 
    126 H126       36.3907   28.9681    6.5758 H         1 UNK         0.0748 
    127 H127       38.5779   27.8971    7.0091 H         1 UNK         0.0771 
    128 H128       38.8244   27.6288    5.2884 H         1 UNK         0.0771 
    129 H129       38.7790   29.2690    5.9371 H         1 UNK         0.0771 
    130 H130       34.4544   27.6576    5.1618 H         1 UNK         0.2980 
    131 H131       33.1241   25.8865    5.0710 H         1 UNK         0.0545 
    132 H132       35.7069   23.6522    3.4411 H         1 UNK         0.3459 
    133 H133       35.7178   25.3872    3.6330 H         1 UNK         0.3459 
    134 H134       32.7566   24.5966    7.1203 H         1 UNK         0.0616 
    135 H135       34.3605   24.9588    7.6975 H         1 UNK         0.0616 
    136 H136       30.6298   27.4188    8.4897 H         1 UNK         0.0634 
    137 H137       30.7995   25.7022    8.2128 H         1 UNK         0.0634 
@<TRIPOS>BOND
     1    1    2 1    
     2    1   72 1    
     3    1   73 1    
     4    1   74 1    
     5    2    3 2    
     6    2    4 am   BACKBONE|DICT|INTERRES
     7    4    5 1    
     8    4   75 1    
     9    5    6 1    
    10    5   35 1    
    11    5   76 1    
    12    6    7 1    
    13    6   77 1    
    14    6   78 1    
    15    7    8 1    
    16    8    9 1    
    17    8   79 1    
    18    8   80 1    
    19    9   10 ar   
    20    9   14 ar   
    21   10   11 ar   
    22   10   81 1    
    23   11   12 ar   
    24   11   71 1    
    25   12   13 ar   
    26   12   82 1    
    27   13   14 ar   
    28   13   15 1    
    29   14   83 1    
    30   15   16 1    
    31   15   84 1    
    32   15   85 1    
    33   16   17 1    
    34   17   18 1    
    35   17   86 1    
    36   17   87 1    
    37   18   19 1    
    38   18   37 1    
    39   18   88 1    
    40   19   20 am   BACKBONE|DICT|INTERRES
    41   19   89 1    
    42   20   21 2    
    43   20   22 1    
    44   22   23 1    
    45   22   24 1    
    46   22   90 1    
    47   23   91 1    
    48   23   92 1    
    49   23   93 1    
    50   24   25 am   BACKBONE|DICT|INTERRES
    51   24   94 1    
    52   25   26 2    
    53   25   27 1    
    54   27   28 1    
    55   27   29 1    
    56   27   95 1    
    57   28   96 1    
    58   28   97 1    
    59   28   98 1    
    60   29   30 am   BACKBONE|DICT|INTERRES
    61   29   99 1    
    62   30   31 2    
    63   30   32 1    
    64   32   33 1    
    65   32   34 1    
    66   32  100 1    
    67   33  101 1    
    68   33  102 1    
    69   33  103 1    
    70   34   35 am   BACKBONE|DICT|INTERRES
    71   34  104 1    
    72   35   36 2    
    73   37   38 2    
    74   37   39 am   BACKBONE|DICT|INTERRES
    75   39   40 1    
    76   39  105 1    
    77   40   41 1    
    78   40   42 1    
    79   40  106 1    
    80   41  107 1    
    81   41  108 1    
    82   41  109 1    
    83   42   43 2    
    84   42   44 am   BACKBONE|DICT|INTERRES
    85   44   45 1    
    86   44  110 1    
    87   45   46 1    
    88   45   47 1    
    89   45  111 1    
    90   46  112 1    
    91   46  113 1    
    92   46  114 1    
    93   47   48 2    
    94   47   49 am   BACKBONE|DICT|INTERRES
    95   49   50 1    
    96   49  115 1    
    97   50   51 1    
    98   50   52 1    
    99   50  116 1    
   100   51  117 1    
   101   51  118 1    
   102   51  119 1    
   103   52   53 2    
   104   52   54 am   BACKBONE|DICT|INTERRES
   105   54   55 1    
   106   54  120 1    
   107   55   56 1    
   108   55   57 1    
   109   55  121 1    
   110   56  122 1    
   111   56  123 1    
   112   56  124 1    
   113   57   58 2    
   114   57   59 am   BACKBONE|DICT|INTERRES
   115   59   60 1    
   116   59  125 1    
   117   60   61 1    
   118   60   62 1    
   119   60  126 1    
   120   61  127 1    
   121   61  128 1    
   122   61  129 1    
   123   62   63 2    
   124   62   64 am   BACKBONE|DICT|INTERRES
   125   64   65 1    
   126   64  130 1    
   127   65   66 1    
   128   65   69 1    
   129   65  131 1    
   130   66   67 am   BACKBONE|DICT|INTERRES
   131   66   68 2    
   132   67  132 1    
   133   67  133 1    
   134   69   70 1    
   135   69  134 1    
   136   69  135 1    
   137   70   71 1    
   138   71  136 1    
   139   71  137 1    
@<TRIPOS>SUBSTRUCTURE
     1 UNK         1 GROUP             0       ****    0 ROOT    
