@<TRIPOS>MOLECULE
3R136
137   139    1
SMALL
USER_CHARGES


@<TRIPOS>ATOM
      1 CA         30.5126   22.8394   -3.2425 C.3       0 UNK        -0.1979 
      2 C          30.5394   24.3224   -2.9028 C.2       0 UNK         0.4864 
      3 O          31.0168   25.1271   -3.7046 O.2       0 UNK        -0.5359 
      4 N          30.0362   24.6827   -1.7168 N.am      1 UNK        -0.4318 
      5 CA         29.8985   26.0583   -1.2314 C.3       1 UNK         0.0824 
      6 C6         29.8657   26.0867    0.3207 C.3       12 UNK        -0.0944 
      7 S7         30.9177   27.3892    1.0259 S.3       12 UNK        -0.2672 
      8 C8         32.2725   26.4018    1.7495 C.3       12 UNK         0.0333 
      9 C9         31.8455   25.6929    3.0282 C.ar      12 UNK        -0.0807 
     10 C10        31.7594   26.4181    4.2184 C.ar      12 UNK        -0.0894 
     11 C11        31.3486   25.8038    5.4052 C.ar      12 UNK        -0.0804 
     12 C12        31.0252   24.4446    5.3904 C.ar      12 UNK        -0.0824 
     13 C13        31.1112   23.7013    4.2093 C.ar      12 UNK        -0.0762 
     14 C14        31.5376   24.3272    3.0322 C.ar      12 UNK        -0.0782 
     15 C15        30.7399   22.2223    4.2195 C.3       12 UNK         0.0230 
     16 S16        29.2499   21.8407    3.2358 S.3       12 UNK        -0.2608 
     17 C17        28.0282   23.0638    3.8255 C.3       12 UNK        -0.0989 
     18 CA         27.8296   24.2112    2.8013 C.3       5 UNK         0.0716 
     19 N          27.0262   23.8292    1.6399 N.am      5 UNK        -0.4135 
     20 C          27.4741   23.3928    0.4583 C.2       4 UNK         0.5031 
     21 O          28.6491   23.1190    0.2152 O.2       4 UNK        -0.5229 
     22 CA         26.4543   23.3149   -0.6893 C.3       4 UNK         0.0329 
     23 CB         25.4491   22.1616   -0.4964 C.3       4 UNK        -0.2001 
     24 N          25.8008   24.6043   -0.9608 N.am      4 UNK        -0.4303 
     25 C          24.8841   25.2490   -0.2230 C.2       3 UNK         0.5044 
     26 O          24.4170   24.8101    0.8280 O.2       3 UNK        -0.5152 
     27 CA         24.4823   26.6437   -0.7238 C.3       3 UNK         0.0319 
     28 CB         23.4457   27.3502    0.1718 C.3       3 UNK        -0.2001 
     29 N          25.6909   27.4571   -0.8473 N.am      3 UNK        -0.4354 
     30 C          25.9325   28.3322   -1.8305 C.2       2 UNK         0.4964 
     31 O          25.0937   28.6741   -2.6649 O.2       2 UNK        -0.5047 
     32 CA         27.3634   28.9009   -1.9300 C.3       2 UNK         0.0288 
     33 CB         27.4581   30.2452   -1.1888 C.3       2 UNK        -0.2113 
     34 N          28.4381   28.0145   -1.4556 N.am      2 UNK        -0.4145 
     35 C          28.6590   26.7485   -1.8446 C.2       1 UNK         0.5006 
     36 O          27.9123   26.1283   -2.6085 O.2       1 UNK        -0.5103 
     37 C          27.0986   25.4154    3.4111 C.2       5 UNK         0.5055 
     38 O          25.9109   25.2979    3.7203 O.2       5 UNK        -0.5220 
     39 N          27.7844   26.5573    3.5277 N.am      6 UNK        -0.4450 
     40 CA         27.2048   27.8431    3.9142 C.3       6 UNK         0.0367 
     41 CB         26.5582   28.4982    2.6788 C.3       6 UNK        -0.1929 
     42 C          28.3054   28.7426    4.4809 C.2       6 UNK         0.5070 
     43 O          29.4840   28.4305    4.3227 O.2       6 UNK        -0.5237 
     44 N          27.9169   29.8664    5.0957 N.am      7 UNK        -0.4739 
     45 CA         28.8234   30.8960    5.6184 C.3       7 UNK         0.0276 
     46 CB         28.0599   31.7628    6.6367 C.3       7 UNK        -0.1927 
     47 C          29.4616   31.7317    4.4875 C.2       7 UNK         0.5013 
     48 O          29.1844   32.9266    4.3657 O.2       7 UNK        -0.5193 
     49 N          30.2771   31.0731    3.6610 N.am      8 UNK        -0.4253 
     50 CA         30.9772   31.6203    2.5062 C.3       8 UNK         0.0242 
     51 CB         30.0791   31.4828    1.2626 C.3       8 UNK        -0.2000 
     52 C          32.2952   30.8593    2.3210 C.2       8 UNK         0.4948 
     53 O          32.4866   29.8059    2.9361 O.2       8 UNK        -0.5275 
     54 N          33.1773   31.4079    1.4714 N.am      9 UNK        -0.4246 
     55 CA         34.4838   30.8629    1.0790 C.3       9 UNK         0.0261 
     56 CB         34.2938   29.6822    0.0994 C.3       9 UNK        -0.1959 
     57 C          35.3568   30.5311    2.3047 C.2       9 UNK         0.5033 
     58 O          35.8130   31.4553    2.9804 O.2       9 UNK        -0.5390 
     59 N          35.5239   29.2349    2.6025 N.am      10 UNK        -0.4215 
     60 CA         36.2155   28.7050    3.7823 C.3       10 UNK         0.0240 
     61 CB         36.2320   27.1693    3.7028 C.3       10 UNK        -0.1982 
     62 C          35.6166   29.1598    5.1282 C.2       10 UNK         0.4970 
     63 O          36.3551   29.2324    6.1115 O.2       10 UNK        -0.4916 
     64 N          34.3147   29.4681    5.1431 N.am      11 UNK        -0.4279 
     65 CA         33.5824   30.0284    6.2867 C.3       11 UNK         0.1003 
     66 C          33.2566   31.5407    6.1039 C.2       11 UNK         0.5709 
     67 N          33.8558   32.2489    5.1521 N.am      11 UNK        -0.7358 
     68 O          32.4572   32.0963    6.8532 O.2       11 UNK        -0.4999 
     69 C69        32.3189   29.1888    6.6088 C.3       12 UNK        -0.0954 
     70 S70        32.7243   27.4959    7.1566 S.3       12 UNK        -0.2268 
     71 C71        31.2051   26.6024    6.6965 C.3       12 UNK         0.0203 
     72 H72        31.5244   22.4755   -3.4187 H         1 UNK         0.0888 
     73 H73        30.0739   22.2473   -2.4390 H         1 UNK         0.0888 
     74 H74        29.9264   22.6723   -4.1456 H         1 UNK         0.0888 
     75 H75        29.6343   23.9745   -1.1058 H         1 UNK         0.3017 
     76 H76        30.7724   26.6121   -1.5824 H         1 UNK         0.0873 
     77 H77        30.2154   25.1361    0.7191 H         1 UNK         0.0745 
     78 H78        28.8545   26.2048    0.7135 H         1 UNK         0.0745 
     79 H79        32.6441   25.6891    1.0117 H         1 UNK         0.0705 
     80 H80        33.1048   27.0680    1.9779 H         1 UNK         0.0705 
     81 H81        31.9893   27.4741    4.2102 H         1 UNK         0.1334 
     82 H82        30.6947   23.9643    6.3014 H         1 UNK         0.1417 
     83 H83        31.6031   23.7529    2.1180 H         1 UNK         0.1562 
     84 H84        30.5800   21.8712    5.2402 H         1 UNK         0.0748 
     85 H85        31.5766   21.6420    3.8282 H         1 UNK         0.0748 
     86 H86        28.3546   23.4515    4.7920 H         1 UNK         0.0940 
     87 H87        27.0825   22.5528    4.0151 H         1 UNK         0.0940 
     88 H88        28.8085   24.5512    2.4663 H         1 UNK         0.0703 
     89 H89        26.0416   24.0796    1.7084 H         1 UNK         0.3081 
     90 H90        27.0225   23.0902   -1.5938 H         1 UNK         0.0719 
     91 H91        24.7636   22.0893   -1.3406 H         1 UNK         0.0809 
     92 H92        24.8537   22.2741    0.4098 H         1 UNK         0.0809 
     93 H93        25.9701   21.2064   -0.4196 H         1 UNK         0.0809 
     94 H94        26.1687   25.0943   -1.7700 H         1 UNK         0.2990 
     95 H95        24.0356   26.4988   -1.7100 H         1 UNK         0.0690 
     96 H96        23.1888   28.3345   -0.2198 H         1 UNK         0.0788 
     97 H97        23.8049   27.4782    1.1920 H         1 UNK         0.0788 
     98 H98        22.5226   26.7718    0.2247 H         1 UNK         0.0788 
     99 H99        26.4415   27.2349   -0.2102 H         1 UNK         0.2993 
    100 H100       27.5526   29.0836   -2.9898 H         1 UNK         0.0949 
    101 H101       26.6914   30.9388   -1.5374 H         1 UNK         0.0767 
    102 H102       27.3233   30.1259   -0.1134 H         1 UNK         0.0767 
    103 H103       28.4229   30.7247   -1.3560 H         1 UNK         0.0767 
    104 H104       29.0992   28.4262   -0.8113 H         1 UNK         0.3013 
    105 H105       28.7849   26.5934    3.3597 H         1 UNK         0.3121 
    106 H106       26.4548   27.6891    4.6931 H         1 UNK         0.0774 
    107 H107       26.0916   29.4514    2.9298 H         1 UNK         0.0815 
    108 H108       27.2954   28.6893    1.8982 H         1 UNK         0.0815 
    109 H109       25.7819   27.8621    2.2582 H         1 UNK         0.0815 
    110 H110       26.9292   30.0692    5.1556 H         1 UNK         0.2987 
    111 H111       29.6372   30.4040    6.1541 H         1 UNK         0.0949 
    112 H112       28.7131   32.5242    7.0655 H         1 UNK         0.0806 
    113 H113       27.2147   32.2778    6.1784 H         1 UNK         0.0806 
    114 H114       27.6802   31.1623    7.4635 H         1 UNK         0.0806 
    115 H115       30.4363   30.0796    3.8217 H         1 UNK         0.3010 
    116 H116       31.2110   32.6718    2.6853 H         1 UNK         0.0829 
    117 H117       29.1390   32.0198    1.3905 H         1 UNK         0.0813 
    118 H118       30.5635   31.8879    0.3736 H         1 UNK         0.0813 
    119 H119       29.8405   30.4380    1.0586 H         1 UNK         0.0813 
    120 H120       32.9391   32.2952    1.0508 H         1 UNK         0.3038 
    121 H121       35.0069   31.6552    0.5413 H         1 UNK         0.0769 
    122 H122       35.2517   29.2562   -0.2023 H         1 UNK         0.0811 
    123 H123       33.7944   30.0133   -0.8112 H         1 UNK         0.0811 
    124 H124       33.6872   28.8831    0.5244 H         1 UNK         0.0811 
    125 H125       35.0753   28.5592    2.0025 H         1 UNK         0.3204 
    126 H126       37.2457   29.0648    3.7461 H         1 UNK         0.0748 
    127 H127       36.7716   26.7407    4.5487 H         1 UNK         0.0771 
    128 H128       35.2229   26.7540    3.7178 H         1 UNK         0.0771 
    129 H129       36.7272   26.8216    2.7959 H         1 UNK         0.0771 
    130 H130       33.7819   29.4234    4.2776 H         1 UNK         0.2980 
    131 H131       34.2179   29.9970    7.1730 H         1 UNK         0.0545 
    132 H132       34.5418   31.8307    4.5343 H         1 UNK         0.3459 
    133 H133       33.6408   33.2291    5.0687 H         1 UNK         0.3459 
    134 H134       31.6677   29.1493    5.7356 H         1 UNK         0.0616 
    135 H135       31.7358   29.6479    7.4087 H         1 UNK         0.0616 
    136 H136       30.9508   25.9392    7.5245 H         1 UNK         0.0634 
    137 H137       30.3705   27.2978    6.6038 H         1 UNK         0.0634 
@<TRIPOS>BOND
     1    1    2 1    
     2    1   72 1    
     3    1   73 1    
     4    1   74 1    
     5    2    3 2    
     6    2    4 am   BACKBONE|DICT|INTERRES
     7    4    5 1    
     8    4   75 1    
     9    5    6 1    
    10    5   35 1    
    11    5   76 1    
    12    6    7 1    
    13    6   77 1    
    14    6   78 1    
    15    7    8 1    
    16    8    9 1    
    17    8   79 1    
    18    8   80 1    
    19    9   10 ar   
    20    9   14 ar   
    21   10   11 ar   
    22   10   81 1    
    23   11   12 ar   
    24   11   71 1    
    25   12   13 ar   
    26   12   82 1    
    27   13   14 ar   
    28   13   15 1    
    29   14   83 1    
    30   15   16 1    
    31   15   84 1    
    32   15   85 1    
    33   16   17 1    
    34   17   18 1    
    35   17   86 1    
    36   17   87 1    
    37   18   19 1    
    38   18   37 1    
    39   18   88 1    
    40   19   20 am   BACKBONE|DICT|INTERRES
    41   19   89 1    
    42   20   21 2    
    43   20   22 1    
    44   22   23 1    
    45   22   24 1    
    46   22   90 1    
    47   23   91 1    
    48   23   92 1    
    49   23   93 1    
    50   24   25 am   BACKBONE|DICT|INTERRES
    51   24   94 1    
    52   25   26 2    
    53   25   27 1    
    54   27   28 1    
    55   27   29 1    
    56   27   95 1    
    57   28   96 1    
    58   28   97 1    
    59   28   98 1    
    60   29   30 am   BACKBONE|DICT|INTERRES
    61   29   99 1    
    62   30   31 2    
    63   30   32 1    
    64   32   33 1    
    65   32   34 1    
    66   32  100 1    
    67   33  101 1    
    68   33  102 1    
    69   33  103 1    
    70   34   35 am   BACKBONE|DICT|INTERRES
    71   34  104 1    
    72   35   36 2    
    73   37   38 2    
    74   37   39 am   BACKBONE|DICT|INTERRES
    75   39   40 1    
    76   39  105 1    
    77   40   41 1    
    78   40   42 1    
    79   40  106 1    
    80   41  107 1    
    81   41  108 1    
    82   41  109 1    
    83   42   43 2    
    84   42   44 am   BACKBONE|DICT|INTERRES
    85   44   45 1    
    86   44  110 1    
    87   45   46 1    
    88   45   47 1    
    89   45  111 1    
    90   46  112 1    
    91   46  113 1    
    92   46  114 1    
    93   47   48 2    
    94   47   49 am   BACKBONE|DICT|INTERRES
    95   49   50 1    
    96   49  115 1    
    97   50   51 1    
    98   50   52 1    
    99   50  116 1    
   100   51  117 1    
   101   51  118 1    
   102   51  119 1    
   103   52   53 2    
   104   52   54 am   BACKBONE|DICT|INTERRES
   105   54   55 1    
   106   54  120 1    
   107   55   56 1    
   108   55   57 1    
   109   55  121 1    
   110   56  122 1    
   111   56  123 1    
   112   56  124 1    
   113   57   58 2    
   114   57   59 am   BACKBONE|DICT|INTERRES
   115   59   60 1    
   116   59  125 1    
   117   60   61 1    
   118   60   62 1    
   119   60  126 1    
   120   61  127 1    
   121   61  128 1    
   122   61  129 1    
   123   62   63 2    
   124   62   64 am   BACKBONE|DICT|INTERRES
   125   64   65 1    
   126   64  130 1    
   127   65   66 1    
   128   65   69 1    
   129   65  131 1    
   130   66   67 am   BACKBONE|DICT|INTERRES
   131   66   68 2    
   132   67  132 1    
   133   67  133 1    
   134   69   70 1    
   135   69  134 1    
   136   69  135 1    
   137   70   71 1    
   138   71  136 1    
   139   71  137 1    
@<TRIPOS>SUBSTRUCTURE
     1 UNK         1 GROUP             0       ****    0 ROOT    
