@<TRIPOS>MOLECULE
3R136
137   139    1
SMALL
USER_CHARGES


@<TRIPOS>ATOM
      1 CA         32.5093   24.3260   -4.2542 C.3       0 UNK        -0.1979 
      2 C          31.7983   25.1828   -3.2170 C.2       0 UNK         0.4864 
      3 O          32.1078   26.3683   -3.0868 O.2       0 UNK        -0.5359 
      4 N          30.8565   24.5891   -2.4732 N.am      1 UNK        -0.4318 
      5 CA         30.0404   25.2595   -1.4540 C.3       1 UNK         0.0824 
      6 C6         29.3533   24.2548   -0.4836 C.3       12 UNK        -0.0944 
      7 S7         30.3574   22.7956   -0.0248 S.3       12 UNK        -0.2672 
      8 C8         31.6978   23.5004    0.9901 C.3       12 UNK         0.0333 
      9 C9         31.2926   23.7277    2.4406 C.ar      12 UNK        -0.0807 
     10 C10        31.4038   24.9995    3.0105 C.ar      12 UNK        -0.0894 
     11 C11        31.0692   25.2087    4.3510 C.ar      12 UNK        -0.0804 
     12 C12        30.6220   24.1354    5.1249 C.ar      12 UNK        -0.0824 
     13 C13        30.4736   22.8653    4.5596 C.ar      12 UNK        -0.0762 
     14 C14        30.8334   22.6619    3.2236 C.ar      12 UNK        -0.0782 
     15 C15        29.8557   21.7354    5.3726 C.3       12 UNK         0.0230 
     16 S16        28.0870   21.5026    4.9692 S.3       12 UNK        -0.2608 
     17 C17        27.3952   23.1551    5.3293 C.3       12 UNK        -0.0989 
     18 CA         27.3451   24.0326    4.0460 C.3       5 UNK         0.0716 
     19 N          26.2937   23.6519    3.1038 N.am      5 UNK        -0.4135 
     20 C          24.9701   23.7578    3.2625 C.2       4 UNK         0.5031 
     21 O          24.4165   24.1363    4.2963 O.2       4 UNK        -0.5229 
     22 CA         24.1286   23.4147    2.0166 C.3       4 UNK         0.0329 
     23 CB         22.7103   22.9429    2.3866 C.3       4 UNK        -0.2001 
     24 N          24.0270   24.5540    1.0991 N.am      4 UNK        -0.4303 
     25 C          25.0454   25.1152    0.4332 C.2       3 UNK         0.5044 
     26 O          26.2053   24.6924    0.4723 O.2       3 UNK        -0.5152 
     27 CA         24.7259   26.3596   -0.4081 C.3       3 UNK         0.0319 
     28 CB         23.8005   27.3572    0.3221 C.3       3 UNK        -0.2001 
     29 N          25.9959   26.9884   -0.7561 N.am      3 UNK        -0.4354 
     30 C          26.2224   27.8344   -1.7650 C.2       2 UNK         0.4964 
     31 O          25.3436   28.2635   -2.5135 O.2       2 UNK        -0.5047 
     32 CA         27.6798   28.2767   -1.9802 C.3       2 UNK         0.0288 
     33 CB         27.9294   29.6381   -1.3103 C.3       2 UNK        -0.2113 
     34 N          28.6541   27.2980   -1.4811 N.am      2 UNK        -0.4145 
     35 C          29.0011   26.1816   -2.1339 C.2       1 UNK         0.5006 
     36 O          28.5241   25.8619   -3.2274 O.2       1 UNK        -0.5103 
     37 C          27.3405   25.5506    4.3181 C.2       5 UNK         0.5055 
     38 O          27.1271   25.9871    5.4510 O.2       5 UNK        -0.5220 
     39 N          27.6028   26.3219    3.2574 N.am      6 UNK        -0.4450 
     40 CA         27.8646   27.7570    3.2880 C.3       6 UNK         0.0367 
     41 CB         26.5651   28.5309    3.0157 C.3       6 UNK        -0.1929 
     42 C          28.9093   28.0610    2.2095 C.2       6 UNK         0.5070 
     43 O          29.0321   27.2943    1.2507 O.2       6 UNK        -0.5237 
     44 N          29.6234   29.1771    2.3583 N.am      7 UNK        -0.4739 
     45 CA         30.6466   29.6548    1.4307 C.3       7 UNK         0.0276 
     46 CB         31.9472   28.8499    1.6250 C.3       7 UNK        -0.1927 
     47 C          30.8787   31.1556    1.6486 C.2       7 UNK         0.5013 
     48 O          30.3269   31.7352    2.5890 O.2       7 UNK        -0.5193 
     49 N          31.7122   31.7515    0.7893 N.am      8 UNK        -0.4253 
     50 CA         32.3057   33.0711    1.0038 C.3       8 UNK         0.0242 
     51 CB         32.5791   33.7275   -0.3597 C.3       8 UNK        -0.2000 
     52 C          33.6126   32.9113    1.7981 C.2       8 UNK         0.4948 
     53 O          34.2800   31.8828    1.6616 O.2       8 UNK        -0.5275 
     54 N          33.9662   33.9397    2.5821 N.am      9 UNK        -0.4246 
     55 CA         35.1128   33.9872    3.4988 C.3       9 UNK         0.0261 
     56 CB         36.4568   33.9304    2.7339 C.3       9 UNK        -0.1959 
     57 C          34.9628   32.9388    4.6186 C.2       9 UNK         0.5033 
     58 O          34.0175   33.0523    5.4027 O.2       9 UNK        -0.5390 
     59 N          35.8719   31.9545    4.6880 N.am      10 UNK        -0.4215 
     60 CA         35.8592   30.8490    5.6528 C.3       10 UNK         0.0240 
     61 CB         37.0904   29.9558    5.4242 C.3       10 UNK        -0.1982 
     62 C          34.5558   30.0348    5.5608 C.2       10 UNK         0.4970 
     63 O          34.2945   29.4402    4.5149 O.2       10 UNK        -0.4916 
     64 N          33.7624   30.0875    6.6399 N.am      11 UNK        -0.4279 
     65 CA         32.3696   29.6168    6.7561 C.3       11 UNK         0.1003 
     66 C          31.3695   30.1761    5.6967 C.2       11 UNK         0.5709 
     67 N          31.6538   31.3111    5.0718 N.am      11 UNK        -0.7358 
     68 O          30.3039   29.6095    5.4675 O.2       11 UNK        -0.4999 
     69 C69        32.2268   28.0992    7.0846 C.3       12 UNK        -0.0954 
     70 S70        32.7203   26.9015    5.7956 S.3       12 UNK        -0.2268 
     71 C71        31.1356   26.5997    4.9578 C.3       12 UNK         0.0203 
     72 H72        32.3490   24.7346   -5.2515 H         1 UNK         0.0888 
     73 H73        33.5812   24.3123   -4.0588 H         1 UNK         0.0888 
     74 H74        32.1506   23.2967   -4.2476 H         1 UNK         0.0888 
     75 H75        30.6366   23.6155   -2.6262 H         1 UNK         0.3017 
     76 H76        30.7083   25.8908   -0.8634 H         1 UNK         0.0873 
     77 H77        29.0437   24.7622    0.4311 H         1 UNK         0.0745 
     78 H78        28.4369   23.8626   -0.9297 H         1 UNK         0.0745 
     79 H79        32.5389   22.8060    0.9760 H         1 UNK         0.0705 
     80 H80        32.0599   24.4207    0.5301 H         1 UNK         0.0705 
     81 H81        31.7520   25.8284    2.4125 H         1 UNK         0.1334 
     82 H82        30.3459   24.3026    6.1572 H         1 UNK         0.1417 
     83 H83        30.7242   21.6803    2.7823 H         1 UNK         0.1562 
     84 H84        29.9602   21.9275    6.4416 H         1 UNK         0.0748 
     85 H85        30.3913   20.8055    5.1756 H         1 UNK         0.0748 
     86 H86        28.0016   23.6165    6.1099 H         1 UNK         0.0940 
     87 H87        26.4014   23.0419    5.7644 H         1 UNK         0.0940 
     88 H88        28.2665   23.8657    3.4905 H         1 UNK         0.0703 
     89 H89        26.6156   23.4338    2.1684 H         1 UNK         0.3081 
     90 H90        24.6232   22.5954    1.4898 H         1 UNK         0.0719 
     91 H91        22.1333   23.7310    2.8723 H         1 UNK         0.0809 
     92 H92        22.1576   22.6169    1.5053 H         1 UNK         0.0809 
     93 H93        22.7489   22.0971    3.0744 H         1 UNK         0.0809 
     94 H94        23.1155   24.9810    1.0222 H         1 UNK         0.2990 
     95 H95        24.2424   26.0221   -1.3269 H         1 UNK         0.0690 
     96 H96        23.7173   28.3000   -0.2186 H         1 UNK         0.0788 
     97 H97        24.1548   27.5811    1.3280 H         1 UNK         0.0788 
     98 H98        22.7890   26.9609    0.4151 H         1 UNK         0.0788 
     99 H99        26.7857   26.6255   -0.2363 H         1 UNK         0.2993 
    100 H100       27.8272   28.3978   -3.0559 H         1 UNK         0.0949 
    101 H101       27.2255   30.3869   -1.6766 H         1 UNK         0.0767 
    102 H102       27.8113   29.5852   -0.2276 H         1 UNK         0.0767 
    103 H103       28.9313   30.0079   -1.5275 H         1 UNK         0.0767 
    104 H104       28.9968   27.4327   -0.5300 H         1 UNK         0.3013 
    105 H105       27.8117   25.8911    2.3645 H         1 UNK         0.3121 
    106 H106       28.2714   28.0394    4.2617 H         1 UNK         0.0774 
    107 H107       26.7204   29.6041    3.1322 H         1 UNK         0.0815 
    108 H108       26.2086   28.3638    1.9996 H         1 UNK         0.0815 
    109 H109       25.7733   28.2395    3.7060 H         1 UNK         0.0815 
    110 H110       29.4683   29.7827    3.1574 H         1 UNK         0.2987 
    111 H111       30.2935   29.5224    0.4072 H         1 UNK         0.0949 
    112 H112       32.7587   29.2315    1.0047 H         1 UNK         0.0806 
    113 H113       32.2892   28.8862    2.6604 H         1 UNK         0.0806 
    114 H114       31.8079   27.8064    1.3489 H         1 UNK         0.0806 
    115 H115       32.1572   31.1848    0.0817 H         1 UNK         0.3010 
    116 H116       31.6154   33.7031    1.5674 H         1 UNK         0.0829 
    117 H117       31.6615   33.8358   -0.9382 H         1 UNK         0.0813 
    118 H118       33.0028   34.7249   -0.2356 H         1 UNK         0.0813 
    119 H119       33.2845   33.1460   -0.9550 H         1 UNK         0.0813 
    120 H120       33.3428   34.7337    2.6343 H         1 UNK         0.3038 
    121 H121       35.0666   34.9585    3.9938 H         1 UNK         0.0769 
    122 H122       36.5955   32.9944    2.1924 H         1 UNK         0.0811 
    123 H123       37.3011   34.0479    3.4147 H         1 UNK         0.0811 
    124 H124       36.5227   34.7394    2.0064 H         1 UNK         0.0811 
    125 H125       36.5782   31.9160    3.9682 H         1 UNK         0.3204 
    126 H126       35.9388   31.2841    6.6512 H         1 UNK         0.0748 
    127 H127       38.0175   30.5146    5.5536 H         1 UNK         0.0771 
    128 H128       37.1087   29.1292    6.1360 H         1 UNK         0.0771 
    129 H129       37.0952   29.5227    4.4229 H         1 UNK         0.0771 
    130 H130       34.0837   30.6331    7.4262 H         1 UNK         0.2980 
    131 H131       32.0281   30.1180    7.6624 H         1 UNK         0.0545 
    132 H132       31.0262   31.6370    4.3446 H         1 UNK         0.3459 
    133 H133       32.5098   31.8200    5.2663 H         1 UNK         0.3459 
    134 H134       32.8369   27.8772    7.9611 H         1 UNK         0.0616 
    135 H135       31.2051   27.8831    7.3999 H         1 UNK         0.0616 
    136 H136       30.3042   26.7277    5.6524 H         1 UNK         0.0634 
    137 H137       31.0050   27.3539    4.1828 H         1 UNK         0.0634 
@<TRIPOS>BOND
     1    1    2 1    
     2    1   72 1    
     3    1   73 1    
     4    1   74 1    
     5    2    3 2    
     6    2    4 am   BACKBONE|DICT|INTERRES
     7    4    5 1    
     8    4   75 1    
     9    5    6 1    
    10    5   35 1    
    11    5   76 1    
    12    6    7 1    
    13    6   77 1    
    14    6   78 1    
    15    7    8 1    
    16    8    9 1    
    17    8   79 1    
    18    8   80 1    
    19    9   10 ar   
    20    9   14 ar   
    21   10   11 ar   
    22   10   81 1    
    23   11   12 ar   
    24   11   71 1    
    25   12   13 ar   
    26   12   82 1    
    27   13   14 ar   
    28   13   15 1    
    29   14   83 1    
    30   15   16 1    
    31   15   84 1    
    32   15   85 1    
    33   16   17 1    
    34   17   18 1    
    35   17   86 1    
    36   17   87 1    
    37   18   19 1    
    38   18   37 1    
    39   18   88 1    
    40   19   20 am   BACKBONE|DICT|INTERRES
    41   19   89 1    
    42   20   21 2    
    43   20   22 1    
    44   22   23 1    
    45   22   24 1    
    46   22   90 1    
    47   23   91 1    
    48   23   92 1    
    49   23   93 1    
    50   24   25 am   BACKBONE|DICT|INTERRES
    51   24   94 1    
    52   25   26 2    
    53   25   27 1    
    54   27   28 1    
    55   27   29 1    
    56   27   95 1    
    57   28   96 1    
    58   28   97 1    
    59   28   98 1    
    60   29   30 am   BACKBONE|DICT|INTERRES
    61   29   99 1    
    62   30   31 2    
    63   30   32 1    
    64   32   33 1    
    65   32   34 1    
    66   32  100 1    
    67   33  101 1    
    68   33  102 1    
    69   33  103 1    
    70   34   35 am   BACKBONE|DICT|INTERRES
    71   34  104 1    
    72   35   36 2    
    73   37   38 2    
    74   37   39 am   BACKBONE|DICT|INTERRES
    75   39   40 1    
    76   39  105 1    
    77   40   41 1    
    78   40   42 1    
    79   40  106 1    
    80   41  107 1    
    81   41  108 1    
    82   41  109 1    
    83   42   43 2    
    84   42   44 am   BACKBONE|DICT|INTERRES
    85   44   45 1    
    86   44  110 1    
    87   45   46 1    
    88   45   47 1    
    89   45  111 1    
    90   46  112 1    
    91   46  113 1    
    92   46  114 1    
    93   47   48 2    
    94   47   49 am   BACKBONE|DICT|INTERRES
    95   49   50 1    
    96   49  115 1    
    97   50   51 1    
    98   50   52 1    
    99   50  116 1    
   100   51  117 1    
   101   51  118 1    
   102   51  119 1    
   103   52   53 2    
   104   52   54 am   BACKBONE|DICT|INTERRES
   105   54   55 1    
   106   54  120 1    
   107   55   56 1    
   108   55   57 1    
   109   55  121 1    
   110   56  122 1    
   111   56  123 1    
   112   56  124 1    
   113   57   58 2    
   114   57   59 am   BACKBONE|DICT|INTERRES
   115   59   60 1    
   116   59  125 1    
   117   60   61 1    
   118   60   62 1    
   119   60  126 1    
   120   61  127 1    
   121   61  128 1    
   122   61  129 1    
   123   62   63 2    
   124   62   64 am   BACKBONE|DICT|INTERRES
   125   64   65 1    
   126   64  130 1    
   127   65   66 1    
   128   65   69 1    
   129   65  131 1    
   130   66   67 am   BACKBONE|DICT|INTERRES
   131   66   68 2    
   132   67  132 1    
   133   67  133 1    
   134   69   70 1    
   135   69  134 1    
   136   69  135 1    
   137   70   71 1    
   138   71  136 1    
   139   71  137 1    
@<TRIPOS>SUBSTRUCTURE
     1 UNK         1 GROUP             0       ****    0 ROOT    
