@<TRIPOS>MOLECULE
3R136
137   139    1
SMALL
USER_CHARGES


@<TRIPOS>ATOM
      1 CA         25.1500   17.4309    0.4979 C.3       0 UNK        -0.1979 
      2 C          26.2335   18.4726    0.2598 C.2       0 UNK         0.4864 
      3 O          26.7150   18.6072   -0.8665 O.2       0 UNK        -0.5359 
      4 N          26.6253   19.2038    1.3117 N.am      1 UNK        -0.4318 
      5 CA         27.6027   20.2953    1.2545 C.3       1 UNK         0.0824 
      6 C6         28.1458   20.6261    2.6689 C.3       12 UNK        -0.0944 
      7 S7         29.8421   21.2924    2.6289 S.3       12 UNK        -0.2672 
      8 C8         29.5224   23.0399    3.0103 C.3       12 UNK         0.0333 
      9 C9         30.7817   23.8857    2.8997 C.ar      12 UNK        -0.0807 
     10 C10        31.3293   24.5052    4.0280 C.ar      12 UNK        -0.0894 
     11 C11        32.4640   25.3164    3.9118 C.ar      12 UNK        -0.0804 
     12 C12        33.0599   25.4897    2.6593 C.ar      12 UNK        -0.0824 
     13 C13        32.5156   24.8834    1.5243 C.ar      12 UNK        -0.0762 
     14 C14        31.3798   24.0794    1.6524 C.ar      12 UNK        -0.0782 
     15 C15        33.1491   25.1034    0.1584 C.3       12 UNK         0.0230 
     16 S16        32.7658   26.7500   -0.5220 S.3       12 UNK        -0.2608 
     17 C17        30.9506   26.6784   -0.7038 C.3       12 UNK        -0.0989 
     18 CA         30.2216   27.8942   -0.0830 C.3       5 UNK         0.0716 
     19 N          28.8426   27.9705   -0.5674 N.am      5 UNK        -0.4135 
     20 C          28.1191   29.0949   -0.6450 C.2       4 UNK         0.5031 
     21 O          28.5591   30.2126   -0.3799 O.2       4 UNK        -0.5229 
     22 CA         26.6501   28.9465   -1.0806 C.3       4 UNK         0.0329 
     23 CB         26.5286   29.0521   -2.6092 C.3       4 UNK        -0.2001 
     24 N          26.0447   27.6901   -0.6287 N.am      4 UNK        -0.4303 
     25 C          25.7577   27.4080    0.6503 C.2       3 UNK         0.5044 
     26 O          25.9126   28.2031    1.5764 O.2       3 UNK        -0.5152 
     27 CA         25.2400   25.9902    0.9559 C.3       3 UNK         0.0319 
     28 CB         23.7045   25.9586    0.9051 C.3       3 UNK        -0.2001 
     29 N          25.7770   24.9388    0.0826 N.am      3 UNK        -0.4354 
     30 C          27.0743   24.6335   -0.0580 C.2       2 UNK         0.4964 
     31 O          27.9879   25.2588    0.4832 O.2       2 UNK        -0.5047 
     32 CA         27.4114   23.4455   -0.9745 C.3       2 UNK         0.0288 
     33 CB         28.5338   23.8079   -1.9630 C.3       2 UNK        -0.2113 
     34 N          27.8095   22.2611   -0.2103 N.am      2 UNK        -0.4145 
     35 C          26.9897   21.5328    0.5605 C.2       1 UNK         0.5006 
     36 O          25.7968   21.7998    0.7334 O.2       1 UNK        -0.5103 
     37 C          30.2578   27.9110    1.4618 C.2       5 UNK         0.5055 
     38 O          31.1683   28.4999    2.0364 O.2       5 UNK        -0.5220 
     39 N          29.2331   27.3361    2.1090 N.am      6 UNK        -0.4450 
     40 CA         29.0448   27.3247    3.5644 C.3       6 UNK         0.0367 
     41 CB         27.9372   26.3166    3.9127 C.3       6 UNK        -0.1929 
     42 C          28.7103   28.6933    4.1929 C.2       6 UNK         0.5070 
     43 O          28.6099   28.7730    5.4189 O.2       6 UNK        -0.5237 
     44 N          28.4943   29.7322    3.3746 N.am      7 UNK        -0.4739 
     45 CA         28.0881   31.0813    3.7750 C.3       7 UNK         0.0276 
     46 CB         27.5582   31.8223    2.5338 C.3       7 UNK        -0.1927 
     47 C          29.1989   31.8675    4.5035 C.2       7 UNK         0.5013 
     48 O          29.7028   32.8601    3.9717 O.2       7 UNK        -0.5193 
     49 N          29.5457   31.4113    5.7153 N.am      8 UNK        -0.4253 
     50 CA         30.4656   32.0152    6.6859 C.3       8 UNK         0.0242 
     51 CB         29.8082   33.2510    7.3412 C.3       8 UNK        -0.2000 
     52 C          31.8510   32.3002    6.0798 C.2       8 UNK         0.4948 
     53 O          32.6365   31.3683    5.9087 O.2       8 UNK        -0.5275 
     54 N          32.1135   33.5683    5.7312 N.am      9 UNK        -0.4246 
     55 CA         33.3367   34.0422    5.0767 C.3       9 UNK         0.0261 
     56 CB         33.2654   35.5693    4.9171 C.3       9 UNK        -0.1959 
     57 C          33.6304   33.3728    3.7209 C.2       9 UNK         0.5033 
     58 O          34.7962   33.3201    3.3248 O.2       9 UNK        -0.5390 
     59 N          32.5963   32.8349    3.0543 N.am      10 UNK        -0.4215 
     60 CA         32.7163   32.0442    1.8257 C.3       10 UNK         0.0240 
     61 CB         31.3164   31.7389    1.2728 C.3       10 UNK        -0.1982 
     62 C          33.5456   30.7518    1.9822 C.2       10 UNK         0.4970 
     63 O          34.0824   30.2779    0.9795 O.2       10 UNK        -0.4916 
     64 N          33.6876   30.2377    3.2154 N.am      11 UNK        -0.4279 
     65 CA         34.6138   29.1441    3.5504 C.3       11 UNK         0.1003 
     66 C          36.1205   29.5226    3.4168 C.2       11 UNK         0.5709 
     67 N          36.4950   30.7952    3.3259 N.am      11 UNK        -0.7358 
     68 O          36.9710   28.6360    3.3905 O.2       11 UNK        -0.4999 
     69 C69        34.3372   28.5461    4.9573 C.3       12 UNK        -0.0954 
     70 S70        32.6811   27.7965    5.1389 S.3       12 UNK        -0.2268 
     71 C71        33.0458   26.0078    5.1363 C.3       12 UNK         0.0203 
     72 H72        24.8251   17.4105    1.5381 H         1 UNK         0.0888 
     73 H73        24.2814   17.6446   -0.1242 H         1 UNK         0.0888 
     74 H74        25.5195   16.4390    0.2390 H         1 UNK         0.0888 
     75 H75        26.1679   19.0714    2.2023 H         1 UNK         0.3017 
     76 H76        28.4326   19.9376    0.6401 H         1 UNK         0.0873 
     77 H77        28.1999   19.7158    3.2686 H         1 UNK         0.0745 
     78 H78        27.4765   21.2941    3.2155 H         1 UNK         0.0745 
     79 H79        28.7753   23.4251    2.3168 H         1 UNK         0.0705 
     80 H80        29.0910   23.1147    4.0097 H         1 UNK         0.0705 
     81 H81        30.8629   24.3701    4.9942 H         1 UNK         0.1334 
     82 H82        33.9348   26.1164    2.5627 H         1 UNK         0.1417 
     83 H83        30.9499   23.6075    0.7798 H         1 UNK         0.1562 
     84 H84        32.8237   24.3384   -0.5484 H         1 UNK         0.0748 
     85 H85        34.2320   25.0000    0.2413 H         1 UNK         0.0748 
     86 H86        30.5541   25.7502   -0.2969 H         1 UNK         0.0940 
     87 H87        30.7476   26.6366   -1.7751 H         1 UNK         0.0940 
     88 H88        30.7409   28.7936   -0.4224 H         1 UNK         0.0703 
     89 H89        28.3847   27.0868   -0.7427 H         1 UNK         0.3081 
     90 H90        26.0904   29.7726   -0.6361 H         1 UNK         0.0719 
     91 H91        26.9529   29.9906   -2.9691 H         1 UNK         0.0809 
     92 H92        27.0542   28.2417   -3.1159 H         1 UNK         0.0809 
     93 H93        25.4860   29.0278   -2.9270 H         1 UNK         0.0809 
     94 H94        25.8631   26.9853   -1.3286 H         1 UNK         0.2990 
     95 H95        25.5472   25.7457    1.9741 H         1 UNK         0.0690 
     96 H96        23.2762   26.7129    1.5669 H         1 UNK         0.0788 
     97 H97        23.3164   24.9918    1.2267 H         1 UNK         0.0788 
     98 H98        23.3286   26.1551   -0.0998 H         1 UNK         0.0788 
     99 H99        25.0956   24.3522   -0.3784 H         1 UNK         0.2993 
    100 H100       26.5232   23.1918   -1.5576 H         1 UNK         0.0949 
    101 H101       28.6846   23.0146   -2.6955 H         1 UNK         0.0767 
    102 H102       28.2928   24.7161   -2.5172 H         1 UNK         0.0767 
    103 H103       29.4839   23.9753   -1.4559 H         1 UNK         0.0767 
    104 H104       28.7794   21.9890   -0.2761 H         1 UNK         0.3013 
    105 H105       28.5623   26.8055    1.5630 H         1 UNK         0.3121 
    106 H106       29.9785   26.9841    4.0127 H         1 UNK         0.0774 
    107 H107       27.9253   26.1082    4.9832 H         1 UNK         0.0815 
    108 H108       26.9518   26.6997    3.6477 H         1 UNK         0.0815 
    109 H109       28.0738   25.3692    3.3978 H         1 UNK         0.0815 
    110 H110       28.6016   29.5736    2.3831 H         1 UNK         0.2987 
    111 H111       27.2562   30.9857    4.4762 H         1 UNK         0.0949 
    112 H112       27.1982   32.8178    2.7965 H         1 UNK         0.0806 
    113 H113       28.3310   31.9455    1.7747 H         1 UNK         0.0806 
    114 H114       26.7257   31.2862    2.0769 H         1 UNK         0.0806 
    115 H115       29.1528   30.5100    5.9784 H         1 UNK         0.3010 
    116 H116       30.6241   31.2712    7.4682 H         1 UNK         0.0829 
    117 H117       29.5212   34.0077    6.6101 H         1 UNK         0.0813 
    118 H118       28.9069   32.9674    7.8848 H         1 UNK         0.0813 
    119 H119       30.4792   33.7199    8.0625 H         1 UNK         0.0813 
    120 H120       31.3852   34.2530    5.8748 H         1 UNK         0.3038 
    121 H121       34.1718   33.8043    5.7388 H         1 UNK         0.0769 
    122 H122       32.4276   35.8702    4.2866 H         1 UNK         0.0811 
    123 H123       34.1754   35.9565    4.4564 H         1 UNK         0.0811 
    124 H124       33.1573   36.0659    5.8816 H         1 UNK         0.0811 
    125 H125       31.6641   32.9200    3.4512 H         1 UNK         0.3204 
    126 H126       33.2359   32.6661    1.0939 H         1 UNK         0.0748 
    127 H127       31.3763   31.1823    0.3366 H         1 UNK         0.0771 
    128 H128       30.7362   31.1353    1.9698 H         1 UNK         0.0771 
    129 H129       30.7564   32.6525    1.0731 H         1 UNK         0.0771 
    130 H130       33.2142   30.6705    4.0001 H         1 UNK         0.2980 
    131 H131       34.4415   28.3542    2.8184 H         1 UNK         0.0545 
    132 H132       37.4748   31.0112    3.2372 H         1 UNK         0.3459 
    133 H133       35.8144   31.5467    3.3337 H         1 UNK         0.3459 
    134 H134       34.4315   29.3257    5.7148 H         1 UNK         0.0616 
    135 H135       35.0919   27.8021    5.2154 H         1 UNK         0.0616 
    136 H136       34.1188   25.8205    5.1778 H         1 UNK         0.0634 
    137 H137       32.6323   25.5743    6.0480 H         1 UNK         0.0634 
@<TRIPOS>BOND
     1    1    2 1    
     2    1   72 1    
     3    1   73 1    
     4    1   74 1    
     5    2    3 2    
     6    2    4 am   BACKBONE|DICT|INTERRES
     7    4    5 1    
     8    4   75 1    
     9    5    6 1    
    10    5   35 1    
    11    5   76 1    
    12    6    7 1    
    13    6   77 1    
    14    6   78 1    
    15    7    8 1    
    16    8    9 1    
    17    8   79 1    
    18    8   80 1    
    19    9   10 ar   
    20    9   14 ar   
    21   10   11 ar   
    22   10   81 1    
    23   11   12 ar   
    24   11   71 1    
    25   12   13 ar   
    26   12   82 1    
    27   13   14 ar   
    28   13   15 1    
    29   14   83 1    
    30   15   16 1    
    31   15   84 1    
    32   15   85 1    
    33   16   17 1    
    34   17   18 1    
    35   17   86 1    
    36   17   87 1    
    37   18   19 1    
    38   18   37 1    
    39   18   88 1    
    40   19   20 am   BACKBONE|DICT|INTERRES
    41   19   89 1    
    42   20   21 2    
    43   20   22 1    
    44   22   23 1    
    45   22   24 1    
    46   22   90 1    
    47   23   91 1    
    48   23   92 1    
    49   23   93 1    
    50   24   25 am   BACKBONE|DICT|INTERRES
    51   24   94 1    
    52   25   26 2    
    53   25   27 1    
    54   27   28 1    
    55   27   29 1    
    56   27   95 1    
    57   28   96 1    
    58   28   97 1    
    59   28   98 1    
    60   29   30 am   BACKBONE|DICT|INTERRES
    61   29   99 1    
    62   30   31 2    
    63   30   32 1    
    64   32   33 1    
    65   32   34 1    
    66   32  100 1    
    67   33  101 1    
    68   33  102 1    
    69   33  103 1    
    70   34   35 am   BACKBONE|DICT|INTERRES
    71   34  104 1    
    72   35   36 2    
    73   37   38 2    
    74   37   39 am   BACKBONE|DICT|INTERRES
    75   39   40 1    
    76   39  105 1    
    77   40   41 1    
    78   40   42 1    
    79   40  106 1    
    80   41  107 1    
    81   41  108 1    
    82   41  109 1    
    83   42   43 2    
    84   42   44 am   BACKBONE|DICT|INTERRES
    85   44   45 1    
    86   44  110 1    
    87   45   46 1    
    88   45   47 1    
    89   45  111 1    
    90   46  112 1    
    91   46  113 1    
    92   46  114 1    
    93   47   48 2    
    94   47   49 am   BACKBONE|DICT|INTERRES
    95   49   50 1    
    96   49  115 1    
    97   50   51 1    
    98   50   52 1    
    99   50  116 1    
   100   51  117 1    
   101   51  118 1    
   102   51  119 1    
   103   52   53 2    
   104   52   54 am   BACKBONE|DICT|INTERRES
   105   54   55 1    
   106   54  120 1    
   107   55   56 1    
   108   55   57 1    
   109   55  121 1    
   110   56  122 1    
   111   56  123 1    
   112   56  124 1    
   113   57   58 2    
   114   57   59 am   BACKBONE|DICT|INTERRES
   115   59   60 1    
   116   59  125 1    
   117   60   61 1    
   118   60   62 1    
   119   60  126 1    
   120   61  127 1    
   121   61  128 1    
   122   61  129 1    
   123   62   63 2    
   124   62   64 am   BACKBONE|DICT|INTERRES
   125   64   65 1    
   126   64  130 1    
   127   65   66 1    
   128   65   69 1    
   129   65  131 1    
   130   66   67 am   BACKBONE|DICT|INTERRES
   131   66   68 2    
   132   67  132 1    
   133   67  133 1    
   134   69   70 1    
   135   69  134 1    
   136   69  135 1    
   137   70   71 1    
   138   71  136 1    
   139   71  137 1    
@<TRIPOS>SUBSTRUCTURE
     1 UNK         1 GROUP             0       ****    0 ROOT    
