@<TRIPOS>MOLECULE
3R136
137   139    1
SMALL
USER_CHARGES


@<TRIPOS>ATOM
      1 CA         33.6651   23.4559   -2.3114 C.3       0 UNK        -0.1979 
      2 C          32.6245   24.5197   -1.9933 C.2       0 UNK         0.4864 
      3 O          32.7503   25.6535   -2.4577 O.2       0 UNK        -0.5359 
      4 N          31.6054   24.1617   -1.2014 N.am      1 UNK        -0.4318 
      5 CA         30.4969   25.0380   -0.8105 C.3       1 UNK         0.0824 
      6 C6         29.6685   24.4265    0.3437 C.3       12 UNK        -0.0944 
      7 S7         30.5449   24.5987    1.9279 S.3       12 UNK        -0.2672 
      8 C8         30.7063   22.8865    2.5225 C.3       12 UNK         0.0333 
      9 C9         30.7158   22.8995    4.0418 C.ar      12 UNK        -0.0807 
     10 C10        31.8255   23.3995    4.7282 C.ar      12 UNK        -0.0894 
     11 C11        31.7807   23.5802    6.1131 C.ar      12 UNK        -0.0804 
     12 C12        30.6209   23.2323    6.8128 C.ar      12 UNK        -0.0824 
     13 C13        29.5139   22.7041    6.1400 C.ar      12 UNK        -0.0762 
     14 C14        29.5798   22.5110    4.7569 C.ar      12 UNK        -0.0782 
     15 C15        28.2304   22.3957    6.9041 C.3       12 UNK         0.0230 
     16 S16        26.7752   23.2993    6.2612 S.3       12 UNK        -0.2608 
     17 C17        27.3832   25.0199    6.1445 C.3       12 UNK        -0.0989 
     18 CA         27.6073   25.4424    4.6638 C.3       5 UNK         0.0716 
     19 N          26.3764   25.4613    3.8698 N.am      5 UNK        -0.4135 
     20 C          25.3415   26.3008    3.9947 C.2       4 UNK         0.5031 
     21 O          25.2616   27.1929    4.8414 O.2       4 UNK        -0.5229 
     22 CA         24.2134   26.1205    2.9599 C.3       4 UNK         0.0329 
     23 CB         22.8304   26.4223    3.5651 C.3       4 UNK        -0.2001 
     24 N          24.4081   26.9578    1.7720 N.am      4 UNK        -0.4303 
     25 C          25.4535   26.8999    0.9356 C.2       3 UNK         0.5044 
     26 O          26.3860   26.1007    1.0611 O.2       3 UNK        -0.5152 
     27 CA         25.4461   27.8926   -0.2378 C.3       3 UNK         0.0319 
     28 CB         25.4209   29.3527    0.2495 C.3       3 UNK        -0.2001 
     29 N          26.6558   27.6913   -1.0284 N.am      3 UNK        -0.4354 
     30 C          26.7160   27.4593   -2.3445 C.2       2 UNK         0.4964 
     31 O          25.7335   27.4660   -3.0872 O.2       2 UNK        -0.5047 
     32 CA         28.1008   27.1624   -2.9430 C.3       2 UNK         0.0288 
     33 CB         28.7221   28.4492   -3.5117 C.3       2 UNK        -0.2113 
     34 N          29.0129   26.5994   -1.9459 N.am      2 UNK        -0.4145 
     35 C          29.5915   25.3953   -2.0066 C.2       1 UNK         0.5006 
     36 O          29.4204   24.5852   -2.9223 O.2       1 UNK        -0.5103 
     37 C          28.4337   26.7359    4.4997 C.2       5 UNK         0.5055 
     38 O          28.9573   27.2598    5.4852 O.2       5 UNK        -0.5220 
     39 N          28.5557   27.2205    3.2554 N.am      6 UNK        -0.4450 
     40 CA         29.4129   28.3456    2.8986 C.3       6 UNK         0.0367 
     41 CB         28.7014   29.6755    3.1990 C.3       6 UNK        -0.1929 
     42 C          29.8068   28.2653    1.4216 C.2       6 UNK         0.5070 
     43 O          28.9938   27.8654    0.5851 O.2       6 UNK        -0.5237 
     44 N          31.0341   28.6948    1.1219 N.am      7 UNK        -0.4739 
     45 CA         31.5299   28.9441   -0.2320 C.3       7 UNK         0.0276 
     46 CB         32.9606   28.4013   -0.3617 C.3       7 UNK        -0.1927 
     47 C          31.4981   30.4475   -0.5391 C.2       7 UNK         0.5013 
     48 O          31.1384   30.8311   -1.6518 O.2       7 UNK        -0.5193 
     49 N          31.8524   31.2678    0.4582 N.am      8 UNK        -0.4253 
     50 CA         31.8637   32.7266    0.3990 C.3       8 UNK         0.0242 
     51 CB         33.1126   33.2247   -0.3577 C.3       8 UNK        -0.2000 
     52 C          31.8004   33.2298    1.8431 C.2       8 UNK         0.4948 
     53 O          32.8218   33.6428    2.3957 O.2       8 UNK        -0.5275 
     54 N          30.6209   33.0780    2.4641 N.am      9 UNK        -0.4246 
     55 CA         30.2967   33.2813    3.8879 C.3       9 UNK         0.0261 
     56 CB         30.5547   34.7325    4.3399 C.3       9 UNK        -0.1959 
     57 C          30.9788   32.2669    4.8273 C.2       9 UNK         0.5033 
     58 O          30.3025   31.6674    5.6633 O.2       9 UNK        -0.5390 
     59 N          32.2876   32.0687    4.6481 N.am      10 UNK        -0.4215 
     60 CA         33.0748   30.9818    5.2227 C.3       10 UNK         0.0240 
     61 CB         34.5324   31.4565    5.3530 C.3       10 UNK        -0.1982 
     62 C          32.9914   29.7296    4.3325 C.2       10 UNK         0.4970 
     63 O          32.5415   29.8126    3.1844 O.2       10 UNK        -0.4916 
     64 N          33.4691   28.6028    4.8748 N.am      11 UNK        -0.4279 
     65 CA         33.5542   27.2802    4.2273 C.3       11 UNK         0.1003 
     66 C          34.3945   27.2197    2.9158 C.2       11 UNK         0.5709 
     67 N          35.2437   28.1963    2.6188 N.am      11 UNK        -0.7358 
     68 O          34.2782   26.2592    2.1601 O.2       11 UNK        -0.4999 
     69 C69        34.0811   26.2123    5.2241 C.3       12 UNK        -0.0954 
     70 S70        33.0254   25.9935    6.6974 S.3       12 UNK        -0.2268 
     71 C71        32.9690   24.1771    6.8537 C.3       12 UNK         0.0203 
     72 H72        34.6480   23.7800   -1.9704 H         1 UNK         0.0888 
     73 H73        33.4365   22.5046   -1.8312 H         1 UNK         0.0888 
     74 H74        33.7144   23.2898   -3.3872 H         1 UNK         0.0888 
     75 H75        31.5488   23.2118   -0.8659 H         1 UNK         0.3017 
     76 H76        30.9402   25.9721   -0.4595 H         1 UNK         0.0873 
     77 H77        28.7161   24.9460    0.4636 H         1 UNK         0.0745 
     78 H78        29.4194   23.3836    0.1414 H         1 UNK         0.0745 
     79 H79        29.8812   22.2766    2.1520 H         1 UNK         0.0705 
     80 H80        31.6274   22.4465    2.1378 H         1 UNK         0.0705 
     81 H81        32.7007   23.6974    4.1693 H         1 UNK         0.1334 
     82 H82        30.5741   23.3932    7.8814 H         1 UNK         0.1417 
     83 H83        28.7140   22.1316    4.2309 H         1 UNK         0.1562 
     84 H84        28.3443   22.6349    7.9626 H         1 UNK         0.0748 
     85 H85        28.0332   21.3242    6.8518 H         1 UNK         0.0748 
     86 H86        28.3041   25.1072    6.7235 H         1 UNK         0.0940 
     87 H87        26.6667   25.6835    6.6307 H         1 UNK         0.0940 
     88 H88        28.2273   24.6828    4.1930 H         1 UNK         0.0703 
     89 H89        26.3630   24.8280    3.0819 H         1 UNK         0.3081 
     90 H90        24.2108   25.0772    2.6366 H         1 UNK         0.0719 
     91 H91        22.7340   27.4692    3.8560 H         1 UNK         0.0809 
     92 H92        22.0298   26.1943    2.8611 H         1 UNK         0.0809 
     93 H93        22.6565   25.8196    4.4576 H         1 UNK         0.0809 
     94 H94        23.6968   27.6531    1.5996 H         1 UNK         0.2990 
     95 H95        24.5551   27.6930   -0.8364 H         1 UNK         0.0690 
     96 H96        25.4387   30.0460   -0.5917 H         1 UNK         0.0788 
     97 H97        26.2800   29.5784    0.8808 H         1 UNK         0.0788 
     98 H98        24.5211   29.5721    0.8246 H         1 UNK         0.0788 
     99 H99        27.5025   27.6261   -0.4680 H         1 UNK         0.2993 
    100 H100       27.9530   26.4572   -3.7639 H         1 UNK         0.0949 
    101 H101       28.8812   29.1987   -2.7348 H         1 UNK         0.0767 
    102 H102       29.6845   28.2484   -3.9831 H         1 UNK         0.0767 
    103 H103       28.0758   28.8945   -4.2694 H         1 UNK         0.0767 
    104 H104       29.1498   27.1502   -1.1010 H         1 UNK         0.3013 
    105 H105       28.1088   26.7504    2.4744 H         1 UNK         0.3121 
    106 H106       30.3258   28.2882    3.4948 H         1 UNK         0.0774 
    107 H107       27.7344   29.7369    2.7012 H         1 UNK         0.0815 
    108 H108       29.3002   30.5214    2.8635 H         1 UNK         0.0815 
    109 H109       28.5353   29.8030    4.2688 H         1 UNK         0.0815 
    110 H110       31.6293   29.0133    1.8855 H         1 UNK         0.2987 
    111 H111       30.9062   28.4405   -0.9716 H         1 UNK         0.0949 
    112 H112       33.6520   28.9132    0.3082 H         1 UNK         0.0806 
    113 H113       33.0032   27.3362   -0.1340 H         1 UNK         0.0806 
    114 H114       33.3340   28.5283   -1.3787 H         1 UNK         0.0806 
    115 H115       32.1310   30.8649    1.3466 H         1 UNK         0.3010 
    116 H116       30.9718   33.0803   -0.1229 H         1 UNK         0.0829 
    117 H117       33.1620   34.3142   -0.3532 H         1 UNK         0.0813 
    118 H118       34.0332   32.8527    0.0938 H         1 UNK         0.0813 
    119 H119       33.1002   32.9062   -1.4000 H         1 UNK         0.0813 
    120 H120       29.8618   32.7025    1.9122 H         1 UNK         0.3038 
    121 H121       29.2227   33.1050    3.9703 H         1 UNK         0.0769 
    122 H122       31.6138   34.9902    4.3180 H         1 UNK         0.0811 
    123 H123       30.2081   34.8859    5.3627 H         1 UNK         0.0811 
    124 H124       30.0238   35.4442    3.7079 H         1 UNK         0.0811 
    125 H125       32.7248   32.6022    3.8985 H         1 UNK         0.3204 
    126 H126       32.6878   30.7343    6.2135 H         1 UNK         0.0748 
    127 H127       35.1600   30.6962    5.8194 H         1 UNK         0.0771 
    128 H128       34.9687   31.6913    4.3808 H         1 UNK         0.0771 
    129 H129       34.6011   32.3512    5.9723 H         1 UNK         0.0771 
    130 H130       33.8174   28.6346    5.8213 H         1 UNK         0.2980 
    131 H131       32.5370   27.0034    3.9431 H         1 UNK         0.0545 
    132 H132       35.3518   28.9871    3.2314 H         1 UNK         0.3459 
    133 H133       35.7853   28.1344    1.7720 H         1 UNK         0.3459 
    134 H134       35.0814   26.4812    5.5685 H         1 UNK         0.0616 
    135 H135       34.1942   25.2499    4.7251 H         1 UNK         0.0616 
    136 H136       33.8998   23.7347    6.4960 H         1 UNK         0.0634 
    137 H137       32.9095   23.9276    7.9142 H         1 UNK         0.0634 
@<TRIPOS>BOND
     1    1    2 1    
     2    1   72 1    
     3    1   73 1    
     4    1   74 1    
     5    2    3 2    
     6    2    4 am   BACKBONE|DICT|INTERRES
     7    4    5 1    
     8    4   75 1    
     9    5    6 1    
    10    5   35 1    
    11    5   76 1    
    12    6    7 1    
    13    6   77 1    
    14    6   78 1    
    15    7    8 1    
    16    8    9 1    
    17    8   79 1    
    18    8   80 1    
    19    9   10 ar   
    20    9   14 ar   
    21   10   11 ar   
    22   10   81 1    
    23   11   12 ar   
    24   11   71 1    
    25   12   13 ar   
    26   12   82 1    
    27   13   14 ar   
    28   13   15 1    
    29   14   83 1    
    30   15   16 1    
    31   15   84 1    
    32   15   85 1    
    33   16   17 1    
    34   17   18 1    
    35   17   86 1    
    36   17   87 1    
    37   18   19 1    
    38   18   37 1    
    39   18   88 1    
    40   19   20 am   BACKBONE|DICT|INTERRES
    41   19   89 1    
    42   20   21 2    
    43   20   22 1    
    44   22   23 1    
    45   22   24 1    
    46   22   90 1    
    47   23   91 1    
    48   23   92 1    
    49   23   93 1    
    50   24   25 am   BACKBONE|DICT|INTERRES
    51   24   94 1    
    52   25   26 2    
    53   25   27 1    
    54   27   28 1    
    55   27   29 1    
    56   27   95 1    
    57   28   96 1    
    58   28   97 1    
    59   28   98 1    
    60   29   30 am   BACKBONE|DICT|INTERRES
    61   29   99 1    
    62   30   31 2    
    63   30   32 1    
    64   32   33 1    
    65   32   34 1    
    66   32  100 1    
    67   33  101 1    
    68   33  102 1    
    69   33  103 1    
    70   34   35 am   BACKBONE|DICT|INTERRES
    71   34  104 1    
    72   35   36 2    
    73   37   38 2    
    74   37   39 am   BACKBONE|DICT|INTERRES
    75   39   40 1    
    76   39  105 1    
    77   40   41 1    
    78   40   42 1    
    79   40  106 1    
    80   41  107 1    
    81   41  108 1    
    82   41  109 1    
    83   42   43 2    
    84   42   44 am   BACKBONE|DICT|INTERRES
    85   44   45 1    
    86   44  110 1    
    87   45   46 1    
    88   45   47 1    
    89   45  111 1    
    90   46  112 1    
    91   46  113 1    
    92   46  114 1    
    93   47   48 2    
    94   47   49 am   BACKBONE|DICT|INTERRES
    95   49   50 1    
    96   49  115 1    
    97   50   51 1    
    98   50   52 1    
    99   50  116 1    
   100   51  117 1    
   101   51  118 1    
   102   51  119 1    
   103   52   53 2    
   104   52   54 am   BACKBONE|DICT|INTERRES
   105   54   55 1    
   106   54  120 1    
   107   55   56 1    
   108   55   57 1    
   109   55  121 1    
   110   56  122 1    
   111   56  123 1    
   112   56  124 1    
   113   57   58 2    
   114   57   59 am   BACKBONE|DICT|INTERRES
   115   59   60 1    
   116   59  125 1    
   117   60   61 1    
   118   60   62 1    
   119   60  126 1    
   120   61  127 1    
   121   61  128 1    
   122   61  129 1    
   123   62   63 2    
   124   62   64 am   BACKBONE|DICT|INTERRES
   125   64   65 1    
   126   64  130 1    
   127   65   66 1    
   128   65   69 1    
   129   65  131 1    
   130   66   67 am   BACKBONE|DICT|INTERRES
   131   66   68 2    
   132   67  132 1    
   133   67  133 1    
   134   69   70 1    
   135   69  134 1    
   136   69  135 1    
   137   70   71 1    
   138   71  136 1    
   139   71  137 1    
@<TRIPOS>SUBSTRUCTURE
     1 UNK         1 GROUP             0       ****    0 ROOT    
