@<TRIPOS>MOLECULE
3R136
137   139    1
SMALL
USER_CHARGES


@<TRIPOS>ATOM
      1 CA         32.0774   22.9998   -3.1987 C.3       0 UNK        -0.1979 
      2 C          31.4862   24.3580   -2.8500 C.2       0 UNK         0.4864 
      3 O          31.7112   25.3273   -3.5767 O.2       0 UNK        -0.5359 
      4 N          30.7395   24.4352   -1.7411 N.am      1 UNK        -0.4318 
      5 CA         30.0448   25.6431   -1.2849 C.3       1 UNK         0.0824 
      6 C6         29.6881   25.5551    0.2201 C.3       12 UNK        -0.0944 
      7 S7         31.1540   25.9258    1.2382 S.3       12 UNK        -0.2672 
      8 C8         31.6988   24.2817    1.8075 C.3       12 UNK         0.0333 
      9 C9         31.3652   24.0647    3.2763 C.ar      12 UNK        -0.0807 
     10 C10        31.9302   24.9016    4.2430 C.ar      12 UNK        -0.0894 
     11 C11        31.6235   24.7398    5.5956 C.ar      12 UNK        -0.0804 
     12 C12        30.7504   23.7210    5.9834 C.ar      12 UNK        -0.0824 
     13 C13        30.1801   22.8723    5.0281 C.ar      12 UNK        -0.0762 
     14 C14        30.5035   23.0379    3.6760 C.ar      12 UNK        -0.0782 
     15 C15        29.1929   21.7958    5.4644 C.3       12 UNK         0.0230 
     16 S16        27.4987   22.0872    4.8465 S.3       12 UNK        -0.2608 
     17 C17        27.2227   23.8543    5.2262 C.3       12 UNK        -0.0989 
     18 CA         27.3003   24.7124    3.9321 C.3       5 UNK         0.0716 
     19 N          26.2364   24.4058    2.9736 N.am      5 UNK        -0.4135 
     20 C          24.9255   24.6385    3.1107 C.2       4 UNK         0.5031 
     21 O          24.4024   25.1291    4.1132 O.2       4 UNK        -0.5229 
     22 CA         24.0614   24.2879    1.8838 C.3       4 UNK         0.0329 
     23 CB         22.6380   23.8621    2.2876 C.3       4 UNK        -0.2001 
     24 N          23.9734   25.3946    0.9256 N.am      4 UNK        -0.4303 
     25 C          25.0016   25.9659    0.2832 C.2       3 UNK         0.5044 
     26 O          26.1783   25.6182    0.4231 O.2       3 UNK        -0.5152 
     27 CA         24.6464   27.1066   -0.6816 C.3       3 UNK         0.0319 
     28 CB         24.0861   28.3304    0.0631 C.3       3 UNK        -0.2001 
     29 N          25.8535   27.5105   -1.3940 N.am      3 UNK        -0.4354 
     30 C          26.0425   27.4306   -2.7141 C.2       2 UNK         0.4964 
     31 O          25.1657   27.1208   -3.5223 O.2       2 UNK        -0.5047 
     32 CA         27.4580   27.7433   -3.2230 C.3       2 UNK         0.0288 
     33 CB         27.6435   29.2596   -3.4011 C.3       2 UNK        -0.2113 
     34 N          28.5191   27.2299   -2.3527 N.am      2 UNK        -0.4145 
     35 C          28.8097   25.9341   -2.1641 C.2       1 UNK         0.5006 
     36 O          28.1713   25.0029   -2.6633 O.2       1 UNK        -0.5103 
     37 C          27.4366   26.2297    4.1841 C.2       5 UNK         0.5055 
     38 O          27.6324   26.6500    5.3266 O.2       5 UNK        -0.5220 
     39 N          27.3475   27.0277    3.1101 N.am      6 UNK        -0.4450 
     40 CA         27.5606   28.4712    3.1362 C.3       6 UNK         0.0367 
     41 CB         26.2675   29.1966    3.5474 C.3       6 UNK        -0.1929 
     42 C          28.0642   28.9436    1.7685 C.2       6 UNK         0.5070 
     43 O          27.5949   28.4616    0.7356 O.2       6 UNK        -0.5237 
     44 N          29.0017   29.8917    1.7950 N.am      7 UNK        -0.4739 
     45 CA         29.6598   30.5308    0.6594 C.3       7 UNK         0.0276 
     46 CB         30.5434   29.5249   -0.1094 C.3       7 UNK        -0.1927 
     47 C          30.5096   31.6806    1.2188 C.2       7 UNK         0.5013 
     48 O          30.6645   31.7880    2.4416 O.2       7 UNK        -0.5193 
     49 N          31.0643   32.5064    0.3220 N.am      8 UNK        -0.4253 
     50 CA         31.9710   33.6099    0.6495 C.3       8 UNK         0.0242 
     51 CB         32.3324   34.3736   -0.6363 C.3       8 UNK        -0.2000 
     52 C          33.2331   33.1050    1.3727 C.2       8 UNK         0.4948 
     53 O          34.0538   32.4240    0.7547 O.2       8 UNK        -0.5275 
     54 N          33.3289   33.4240    2.6715 N.am      9 UNK        -0.4246 
     55 CA         34.3748   33.0109    3.6154 C.3       9 UNK         0.0261 
     56 CB         35.7389   33.6253    3.2317 C.3       9 UNK        -0.1959 
     57 C          34.4482   31.4855    3.8452 C.2       9 UNK         0.5033 
     58 O          35.5343   30.9690    4.1227 O.2       9 UNK        -0.5390 
     59 N          33.3022   30.7885    3.7555 N.am      10 UNK        -0.4215 
     60 CA         33.1685   29.3522    4.0306 C.3       10 UNK         0.0240 
     61 CB         31.7117   28.9115    3.8132 C.3       10 UNK        -0.1982 
     62 C          33.6328   28.9951    5.4527 C.2       10 UNK         0.4970 
     63 O          33.0407   29.4787    6.4198 O.2       10 UNK        -0.4916 
     64 N          34.6905   28.1783    5.5374 N.am      11 UNK        -0.4279 
     65 CA         35.3855   27.7841    6.7764 C.3       11 UNK         0.1003 
     66 C          36.0868   28.9616    7.5248 C.2       11 UNK         0.5709 
     67 N          36.3379   30.0999    6.8865 N.am      11 UNK        -0.7358 
     68 O          36.4452   28.8345    8.6936 O.2       11 UNK        -0.4999 
     69 C69        34.5161   26.8919    7.7127 C.3       12 UNK        -0.0954 
     70 S70        33.9798   25.3488    6.8994 S.3       12 UNK        -0.2268 
     71 C71        32.2154   25.6897    6.6242 C.3       12 UNK         0.0203 
     72 H72        31.7138   22.6715   -4.1720 H         1 UNK         0.0888 
     73 H73        33.1642   23.0642   -3.2442 H         1 UNK         0.0888 
     74 H74        31.8138   22.2390   -2.4641 H         1 UNK         0.0888 
     75 H75        30.5579   23.5981   -1.2081 H         1 UNK         0.3017 
     76 H76        30.7301   26.4826   -1.4261 H         1 UNK         0.0873 
     77 H77        28.9298   26.2903    0.4858 H         1 UNK         0.0745 
     78 H78        29.2612   24.5852    0.4812 H         1 UNK         0.0745 
     79 H79        31.2680   23.4989    1.1823 H         1 UNK         0.0705 
     80 H80        32.7799   24.2113    1.6801 H         1 UNK         0.0705 
     81 H81        32.6044   25.6904    3.9386 H         1 UNK         0.1334 
     82 H82        30.5018   23.6000    7.0291 H         1 UNK         0.1417 
     83 H83        30.0586   22.3848    2.9374 H         1 UNK         0.1562 
     84 H84        29.1573   21.7233    6.5525 H         1 UNK         0.0748 
     85 H85        29.5381   20.8249    5.1065 H         1 UNK         0.0748 
     86 H86        27.9547   24.1796    5.9663 H         1 UNK         0.0940 
     87 H87        26.2508   23.9669    5.7086 H         1 UNK         0.0940 
     88 H88        28.2256   24.4529    3.4194 H         1 UNK         0.0703 
     89 H89        26.5511   24.0936    2.0644 H         1 UNK         0.3081 
     90 H90        24.5265   23.4412    1.3742 H         1 UNK         0.0719 
     91 H91        22.0848   24.6810    2.7495 H         1 UNK         0.0809 
     92 H92        22.0672   23.5150    1.4261 H         1 UNK         0.0809 
     93 H93        22.6664   23.0424    3.0069 H         1 UNK         0.0809 
     94 H94        23.0469   25.7588    0.7576 H         1 UNK         0.2990 
     95 H95        23.8900   26.7317   -1.3740 H         1 UNK         0.0690 
     96 H96        23.7827   29.1074   -0.6387 H         1 UNK         0.0788 
     97 H97        24.8284   28.7652    0.7309 H         1 UNK         0.0788 
     98 H98        23.2098   28.0769    0.6605 H         1 UNK         0.0788 
     99 H99        26.6415   27.7360   -0.7901 H         1 UNK         0.2993 
    100 H100       27.5677   27.2665   -4.1996 H         1 UNK         0.0949 
    101 H101       26.8764   29.6719   -4.0582 H         1 UNK         0.0767 
    102 H102       27.5768   29.7889   -2.4492 H         1 UNK         0.0767 
    103 H103       28.6102   29.4921   -3.8485 H         1 UNK         0.0767 
    104 H104       29.0760   27.9248   -1.8794 H         1 UNK         0.3013 
    105 H105       27.1850   26.6320    2.1891 H         1 UNK         0.3121 
    106 H106       28.3368   28.6971    3.8713 H         1 UNK         0.0774 
    107 H107       26.3814   30.2789    3.4744 H         1 UNK         0.0815 
    108 H108       25.4256   28.9094    2.9192 H         1 UNK         0.0815 
    109 H109       26.0004   28.9684    4.5793 H         1 UNK         0.0815 
    110 H110       29.3113   30.2733    2.6822 H         1 UNK         0.2987 
    111 H111       28.8935   30.9411   -0.0013 H         1 UNK         0.0949 
    112 H112       30.9352   29.9662   -1.0262 H         1 UNK         0.0806 
    113 H113       31.3993   29.1978    0.4811 H         1 UNK         0.0806 
    114 H114       29.9881   28.6355   -0.3947 H         1 UNK         0.0806 
    115 H115       30.9090   32.3313   -0.6600 H         1 UNK         0.3010 
    116 H116       31.4347   34.2968    1.3080 H         1 UNK         0.0829 
    117 H117       31.4460   34.7928   -1.1127 H         1 UNK         0.0813 
    118 H118       33.0056   35.2040   -0.4192 H         1 UNK         0.0813 
    119 H119       32.8325   33.7312   -1.3625 H         1 UNK         0.0813 
    120 H120       32.5705   33.9551    3.0785 H         1 UNK         0.3038 
    121 H121       34.0900   33.4356    4.5791 H         1 UNK         0.0769 
    122 H122       36.1314   33.1956    2.3096 H         1 UNK         0.0811 
    123 H123       36.4810   33.4499    4.0115 H         1 UNK         0.0811 
    124 H124       35.6651   34.7041    3.0952 H         1 UNK         0.0811 
    125 H125       32.4522   31.2821    3.5052 H         1 UNK         0.3204 
    126 H126       33.7923   28.8198    3.3096 H         1 UNK         0.0748 
    127 H127       31.4288   29.0047    2.7676 H         1 UNK         0.0771 
    128 H128       31.5660   27.8663    4.0863 H         1 UNK         0.0771 
    129 H129       31.0158   29.5034    4.4090 H         1 UNK         0.0771 
    130 H130       35.1262   27.8621    4.6836 H         1 UNK         0.2980 
    131 H131       36.2180   27.1643    6.4420 H         1 UNK         0.0545 
    132 H132       36.8045   30.8439    7.3795 H         1 UNK         0.3459 
    133 H133       36.0607   30.2329    5.9193 H         1 UNK         0.3459 
    134 H134       35.0866   26.5958    8.5945 H         1 UNK         0.0616 
    135 H135       33.6515   27.4417    8.0872 H         1 UNK         0.0616 
    136 H136       31.6855   25.6165    7.5751 H         1 UNK         0.0634 
    137 H137       32.0819   26.7138    6.2775 H         1 UNK         0.0634 
@<TRIPOS>BOND
     1    1    2 1    
     2    1   72 1    
     3    1   73 1    
     4    1   74 1    
     5    2    3 2    
     6    2    4 am   BACKBONE|DICT|INTERRES
     7    4    5 1    
     8    4   75 1    
     9    5    6 1    
    10    5   35 1    
    11    5   76 1    
    12    6    7 1    
    13    6   77 1    
    14    6   78 1    
    15    7    8 1    
    16    8    9 1    
    17    8   79 1    
    18    8   80 1    
    19    9   10 ar   
    20    9   14 ar   
    21   10   11 ar   
    22   10   81 1    
    23   11   12 ar   
    24   11   71 1    
    25   12   13 ar   
    26   12   82 1    
    27   13   14 ar   
    28   13   15 1    
    29   14   83 1    
    30   15   16 1    
    31   15   84 1    
    32   15   85 1    
    33   16   17 1    
    34   17   18 1    
    35   17   86 1    
    36   17   87 1    
    37   18   19 1    
    38   18   37 1    
    39   18   88 1    
    40   19   20 am   BACKBONE|DICT|INTERRES
    41   19   89 1    
    42   20   21 2    
    43   20   22 1    
    44   22   23 1    
    45   22   24 1    
    46   22   90 1    
    47   23   91 1    
    48   23   92 1    
    49   23   93 1    
    50   24   25 am   BACKBONE|DICT|INTERRES
    51   24   94 1    
    52   25   26 2    
    53   25   27 1    
    54   27   28 1    
    55   27   29 1    
    56   27   95 1    
    57   28   96 1    
    58   28   97 1    
    59   28   98 1    
    60   29   30 am   BACKBONE|DICT|INTERRES
    61   29   99 1    
    62   30   31 2    
    63   30   32 1    
    64   32   33 1    
    65   32   34 1    
    66   32  100 1    
    67   33  101 1    
    68   33  102 1    
    69   33  103 1    
    70   34   35 am   BACKBONE|DICT|INTERRES
    71   34  104 1    
    72   35   36 2    
    73   37   38 2    
    74   37   39 am   BACKBONE|DICT|INTERRES
    75   39   40 1    
    76   39  105 1    
    77   40   41 1    
    78   40   42 1    
    79   40  106 1    
    80   41  107 1    
    81   41  108 1    
    82   41  109 1    
    83   42   43 2    
    84   42   44 am   BACKBONE|DICT|INTERRES
    85   44   45 1    
    86   44  110 1    
    87   45   46 1    
    88   45   47 1    
    89   45  111 1    
    90   46  112 1    
    91   46  113 1    
    92   46  114 1    
    93   47   48 2    
    94   47   49 am   BACKBONE|DICT|INTERRES
    95   49   50 1    
    96   49  115 1    
    97   50   51 1    
    98   50   52 1    
    99   50  116 1    
   100   51  117 1    
   101   51  118 1    
   102   51  119 1    
   103   52   53 2    
   104   52   54 am   BACKBONE|DICT|INTERRES
   105   54   55 1    
   106   54  120 1    
   107   55   56 1    
   108   55   57 1    
   109   55  121 1    
   110   56  122 1    
   111   56  123 1    
   112   56  124 1    
   113   57   58 2    
   114   57   59 am   BACKBONE|DICT|INTERRES
   115   59   60 1    
   116   59  125 1    
   117   60   61 1    
   118   60   62 1    
   119   60  126 1    
   120   61  127 1    
   121   61  128 1    
   122   61  129 1    
   123   62   63 2    
   124   62   64 am   BACKBONE|DICT|INTERRES
   125   64   65 1    
   126   64  130 1    
   127   65   66 1    
   128   65   69 1    
   129   65  131 1    
   130   66   67 am   BACKBONE|DICT|INTERRES
   131   66   68 2    
   132   67  132 1    
   133   67  133 1    
   134   69   70 1    
   135   69  134 1    
   136   69  135 1    
   137   70   71 1    
   138   71  136 1    
   139   71  137 1    
@<TRIPOS>SUBSTRUCTURE
     1 UNK         1 GROUP             0       ****    0 ROOT    
