@<TRIPOS>MOLECULE
3R136
137   139    1
SMALL
USER_CHARGES


@<TRIPOS>ATOM
      1 CA         32.9124   26.9169    0.2056 C.3       0 UNK        -0.1979 
      2 C          32.1821   25.5829    0.2326 C.2       0 UNK         0.4864 
      3 O          32.6719   24.6169   -0.3524 O.2       0 UNK        -0.5359 
      4 N          31.0080   25.5284    0.8819 N.am      1 UNK        -0.4318 
      5 CA         30.0902   24.3813    0.9051 C.3       1 UNK         0.0824 
      6 C6         30.6580   23.1449    1.6549 C.3       12 UNK        -0.0944 
      7 S7         29.3313   22.1008    2.3579 S.3       12 UNK        -0.2672 
      8 C8         29.6976   22.1163    4.1413 C.3       12 UNK         0.0333 
      9 C9         29.3535   23.4456    4.7994 C.ar      12 UNK        -0.0807 
     10 C10        30.3716   24.2992    5.2350 C.ar      12 UNK        -0.0894 
     11 C11        30.0637   25.5020    5.8780 C.ar      12 UNK        -0.0804 
     12 C12        28.7258   25.8488    6.0822 C.ar      12 UNK        -0.0824 
     13 C13        27.6972   25.0026    5.6567 C.ar      12 UNK        -0.0762 
     14 C14        28.0174   23.8005    5.0169 C.ar      12 UNK        -0.0782 
     15 C15        26.2445   25.3781    5.9251 C.3       12 UNK         0.0230 
     16 S16        25.2964   25.7113    4.4050 S.3       12 UNK        -0.2608 
     17 C17        26.2765   27.0297    3.6070 C.3       12 UNK        -0.0989 
     18 CA         26.8878   26.5357    2.2699 C.3       5 UNK         0.0716 
     19 N          25.8734   26.1364    1.2772 N.am      5 UNK        -0.4135 
     20 C          24.9015   26.8833    0.7328 C.2       4 UNK         0.5031 
     21 O          24.7989   28.0982    0.9123 O.2       4 UNK        -0.5229 
     22 CA         23.8929   26.1589   -0.1792 C.3       4 UNK         0.0329 
     23 CB         23.0750   27.1356   -1.0452 C.3       4 UNK        -0.2001 
     24 N          24.5634   25.2033   -1.0598 N.am      4 UNK        -0.4303 
     25 C          24.7015   23.8913   -0.8449 C.2       3 UNK         0.5044 
     26 O          24.2709   23.3143    0.1530 O.2       3 UNK        -0.5152 
     27 CA         25.4922   23.0951   -1.8982 C.3       3 UNK         0.0319 
     28 CB         24.6974   22.9429   -3.2103 C.3       3 UNK        -0.2001 
     29 N          26.8448   23.6202   -2.1333 N.am      3 UNK        -0.4354 
     30 C          27.2216   24.7917   -2.6657 C.2       2 UNK         0.4964 
     31 O          26.4340   25.6333   -3.1027 O.2       2 UNK        -0.5047 
     32 CA         28.7335   25.0865   -2.6489 C.3       2 UNK         0.0288 
     33 CB         29.0872   26.4075   -3.3586 C.3       2 UNK        -0.2113 
     34 N          29.2558   25.1367   -1.2807 N.am      2 UNK        -0.4145 
     35 C          29.5266   24.0752   -0.5050 C.2       1 UNK         0.5006 
     36 O          29.3410   22.9136   -0.8750 O.2       1 UNK        -0.5103 
     37 C          27.9582   27.5249    1.7542 C.2       5 UNK         0.5055 
     38 O          29.1237   27.3762    2.1225 O.2       5 UNK        -0.5220 
     39 N          27.5675   28.4884    0.9109 N.am      6 UNK        -0.4450 
     40 CA         28.3250   29.6714    0.4914 C.3       6 UNK         0.0367 
     41 CB         29.6808   29.3169   -0.1668 C.3       6 UNK        -0.1929 
     42 C          28.4081   30.6655    1.6645 C.2       6 UNK         0.5070 
     43 O          27.3585   31.1083    2.1346 O.2       6 UNK        -0.5237 
     44 N          29.6179   31.0090    2.1162 N.am      7 UNK        -0.4739 
     45 CA         29.8684   31.9108    3.2377 C.3       7 UNK         0.0276 
     46 CB         30.1087   33.3340    2.7043 C.3       7 UNK        -0.1927 
     47 C          31.0891   31.4126    4.0137 C.2       7 UNK         0.5013 
     48 O          31.9473   30.7451    3.4288 O.2       7 UNK        -0.5193 
     49 N          31.1755   31.7941    5.2964 N.am      8 UNK        -0.4253 
     50 CA         32.2452   31.4219    6.2337 C.3       8 UNK         0.0242 
     51 CB         31.9631   32.0510    7.6073 C.3       8 UNK        -0.2000 
     52 C          33.6640   31.7808    5.7606 C.2       8 UNK         0.4948 
     53 O          34.6035   31.0420    6.0542 O.2       8 UNK        -0.5275 
     54 N          33.7870   32.8765    4.9986 N.am      9 UNK        -0.4246 
     55 CA         35.0256   33.3064    4.3458 C.3       9 UNK         0.0261 
     56 CB         34.8191   34.7093    3.7512 C.3       9 UNK        -0.1959 
     57 C          35.5276   32.3321    3.2617 C.2       9 UNK         0.5033 
     58 O          36.7264   32.3297    2.9774 O.2       9 UNK        -0.5390 
     59 N          34.6206   31.5349    2.6795 N.am      10 UNK        -0.4215 
     60 CA         34.9307   30.5052    1.6920 C.3       10 UNK         0.0240 
     61 CB         33.8767   30.5275    0.5703 C.3       10 UNK        -0.1982 
     62 C          35.0016   29.1203    2.3490 C.2       10 UNK         0.4970 
     63 O          35.9708   28.3991    2.1101 O.2       10 UNK        -0.4916 
     64 N          33.9749   28.7572    3.1328 N.am      11 UNK        -0.4279 
     65 CA         33.8449   27.4199    3.7333 C.3       11 UNK         0.1003 
     66 C          34.7062   27.1661    5.0033 C.2       11 UNK         0.5709 
     67 N          35.2484   28.1823    5.6627 N.am      11 UNK        -0.7358 
     68 O          34.9027   26.0152    5.3862 O.2       11 UNK        -0.4999 
     69 C69        32.3614   26.9966    3.8982 C.3       12 UNK        -0.0954 
     70 S70        31.4590   27.8137    5.2544 S.3       12 UNK        -0.2268 
     71 C71        31.1699   26.4181    6.3830 C.3       12 UNK         0.0203 
     72 H72        32.4186   27.6717    0.8142 H         1 UNK         0.0888 
     73 H73        33.9313   26.7939    0.5707 H         1 UNK         0.0888 
     74 H74        32.9642   27.2914   -0.8163 H         1 UNK         0.0888 
     75 H75        30.6462   26.3520    1.3570 H         1 UNK         0.3017 
     76 H76        29.2376   24.7313    1.4830 H         1 UNK         0.0873 
     77 H77        31.2877   22.5391    1.0007 H         1 UNK         0.0745 
     78 H78        31.3072   23.4729    2.4678 H         1 UNK         0.0745 
     79 H79        30.7466   21.8599    4.2977 H         1 UNK         0.0705 
     80 H80        29.1199   21.3248    4.6209 H         1 UNK         0.0705 
     81 H81        31.4056   24.0197    5.0869 H         1 UNK         0.1334 
     82 H82        28.4891   26.7777    6.5832 H         1 UNK         0.1417 
     83 H83        27.2258   23.1388    4.6918 H         1 UNK         0.1562 
     84 H84        26.1833   26.2531    6.5742 H         1 UNK         0.0748 
     85 H85        25.7616   24.5645    6.4682 H         1 UNK         0.0748 
     86 H86        27.0581   27.3648    4.2912 H         1 UNK         0.0940 
     87 H87        25.6345   27.8978    3.4483 H         1 UNK         0.0940 
     88 H88        27.4292   25.6177    2.4999 H         1 UNK         0.0703 
     89 H89        25.8577   25.1503    1.0599 H         1 UNK         0.3081 
     90 H90        23.1960   25.6317    0.4756 H         1 UNK         0.0719 
     91 H91        23.7162   27.7267   -1.7005 H         1 UNK         0.0809 
     92 H92        22.3566   26.6044   -1.6698 H         1 UNK         0.0809 
     93 H93        22.5084   27.8318   -0.4253 H         1 UNK         0.0809 
     94 H94        25.0306   25.5844   -1.8803 H         1 UNK         0.2990 
     95 H95        25.6354   22.0932   -1.4898 H         1 UNK         0.0690 
     96 H96        25.2322   22.3180   -3.9254 H         1 UNK         0.0788 
     97 H97        24.4989   23.9024   -3.6886 H         1 UNK         0.0788 
     98 H98        23.7321   22.4697   -3.0255 H         1 UNK         0.0788 
     99 H99        27.5963   23.0479   -1.7558 H         1 UNK         0.2993 
    100 H100       29.2295   24.2752   -3.1867 H         1 UNK         0.0949 
    101 H101       28.6139   27.2653   -2.8790 H         1 UNK         0.0767 
    102 H102       30.1640   26.5783   -3.3670 H         1 UNK         0.0767 
    103 H103       28.7554   26.3920   -4.3977 H         1 UNK         0.0767 
    104 H104       29.4262   26.0563   -0.9026 H         1 UNK         0.3013 
    105 H105       26.5645   28.5354    0.7365 H         1 UNK         0.3121 
    106 H106       27.7167   30.1587   -0.2721 H         1 UNK         0.0774 
    107 H107       30.1455   30.2057   -0.5955 H         1 UNK         0.0815 
    108 H108       30.3926   28.8893    0.5373 H         1 UNK         0.0815 
    109 H109       29.5484   28.6044   -0.9800 H         1 UNK         0.0815 
    110 H110       30.4406   30.5453    1.7543 H         1 UNK         0.2987 
    111 H111       29.0115   31.9113    3.9155 H         1 UNK         0.0949 
    112 H112       30.2929   34.0361    3.5184 H         1 UNK         0.0806 
    113 H113       30.9697   33.3735    2.0355 H         1 UNK         0.0806 
    114 H114       29.2421   33.7006    2.1538 H         1 UNK         0.0806 
    115 H115       30.4295   32.3577    5.6788 H         1 UNK         0.3010 
    116 H116       32.2160   30.3384    6.3498 H         1 UNK         0.0829 
    117 H117       31.0093   31.7114    8.0115 H         1 UNK         0.0813 
    118 H118       32.7336   31.7742    8.3286 H         1 UNK         0.0813 
    119 H119       31.9400   33.1403    7.5571 H         1 UNK         0.0813 
    120 H120       32.9602   33.4266    4.8175 H         1 UNK         0.3038 
    121 H121       35.8017   33.3685    5.1117 H         1 UNK         0.0769 
    122 H122       35.7344   35.0720    3.2811 H         1 UNK         0.0811 
    123 H123       34.5453   35.4314    4.5206 H         1 UNK         0.0811 
    124 H124       34.0381   34.7147    2.9896 H         1 UNK         0.0811 
    125 H125       33.6611   31.5568    3.0110 H         1 UNK         0.3204 
    126 H126       35.9016   30.7069    1.2340 H         1 UNK         0.0748 
    127 H127       34.1030   29.7796   -0.1907 H         1 UNK         0.0771 
    128 H128       32.8730   30.3212    0.9423 H         1 UNK         0.0771 
    129 H129       33.8531   31.4969    0.0724 H         1 UNK         0.0771 
    130 H130       33.2096   29.4059    3.3015 H         1 UNK         0.2980 
    131 H131       34.2505   26.7200    3.0003 H         1 UNK         0.0545 
    132 H132       35.0431   29.1437    5.4185 H         1 UNK         0.3459 
    133 H133       35.8096   27.9896    6.4761 H         1 UNK         0.3459 
    134 H134       31.8087   27.2125    2.9863 H         1 UNK         0.0616 
    135 H135       32.3063   25.9151    4.0172 H         1 UNK         0.0616 
    136 H136       30.8955   26.8130    7.3622 H         1 UNK         0.0634 
    137 H137       32.0992   25.8649    6.5284 H         1 UNK         0.0634 
@<TRIPOS>BOND
     1    1    2 1    
     2    1   72 1    
     3    1   73 1    
     4    1   74 1    
     5    2    3 2    
     6    2    4 am   BACKBONE|DICT|INTERRES
     7    4    5 1    
     8    4   75 1    
     9    5    6 1    
    10    5   35 1    
    11    5   76 1    
    12    6    7 1    
    13    6   77 1    
    14    6   78 1    
    15    7    8 1    
    16    8    9 1    
    17    8   79 1    
    18    8   80 1    
    19    9   10 ar   
    20    9   14 ar   
    21   10   11 ar   
    22   10   81 1    
    23   11   12 ar   
    24   11   71 1    
    25   12   13 ar   
    26   12   82 1    
    27   13   14 ar   
    28   13   15 1    
    29   14   83 1    
    30   15   16 1    
    31   15   84 1    
    32   15   85 1    
    33   16   17 1    
    34   17   18 1    
    35   17   86 1    
    36   17   87 1    
    37   18   19 1    
    38   18   37 1    
    39   18   88 1    
    40   19   20 am   BACKBONE|DICT|INTERRES
    41   19   89 1    
    42   20   21 2    
    43   20   22 1    
    44   22   23 1    
    45   22   24 1    
    46   22   90 1    
    47   23   91 1    
    48   23   92 1    
    49   23   93 1    
    50   24   25 am   BACKBONE|DICT|INTERRES
    51   24   94 1    
    52   25   26 2    
    53   25   27 1    
    54   27   28 1    
    55   27   29 1    
    56   27   95 1    
    57   28   96 1    
    58   28   97 1    
    59   28   98 1    
    60   29   30 am   BACKBONE|DICT|INTERRES
    61   29   99 1    
    62   30   31 2    
    63   30   32 1    
    64   32   33 1    
    65   32   34 1    
    66   32  100 1    
    67   33  101 1    
    68   33  102 1    
    69   33  103 1    
    70   34   35 am   BACKBONE|DICT|INTERRES
    71   34  104 1    
    72   35   36 2    
    73   37   38 2    
    74   37   39 am   BACKBONE|DICT|INTERRES
    75   39   40 1    
    76   39  105 1    
    77   40   41 1    
    78   40   42 1    
    79   40  106 1    
    80   41  107 1    
    81   41  108 1    
    82   41  109 1    
    83   42   43 2    
    84   42   44 am   BACKBONE|DICT|INTERRES
    85   44   45 1    
    86   44  110 1    
    87   45   46 1    
    88   45   47 1    
    89   45  111 1    
    90   46  112 1    
    91   46  113 1    
    92   46  114 1    
    93   47   48 2    
    94   47   49 am   BACKBONE|DICT|INTERRES
    95   49   50 1    
    96   49  115 1    
    97   50   51 1    
    98   50   52 1    
    99   50  116 1    
   100   51  117 1    
   101   51  118 1    
   102   51  119 1    
   103   52   53 2    
   104   52   54 am   BACKBONE|DICT|INTERRES
   105   54   55 1    
   106   54  120 1    
   107   55   56 1    
   108   55   57 1    
   109   55  121 1    
   110   56  122 1    
   111   56  123 1    
   112   56  124 1    
   113   57   58 2    
   114   57   59 am   BACKBONE|DICT|INTERRES
   115   59   60 1    
   116   59  125 1    
   117   60   61 1    
   118   60   62 1    
   119   60  126 1    
   120   61  127 1    
   121   61  128 1    
   122   61  129 1    
   123   62   63 2    
   124   62   64 am   BACKBONE|DICT|INTERRES
   125   64   65 1    
   126   64  130 1    
   127   65   66 1    
   128   65   69 1    
   129   65  131 1    
   130   66   67 am   BACKBONE|DICT|INTERRES
   131   66   68 2    
   132   67  132 1    
   133   67  133 1    
   134   69   70 1    
   135   69  134 1    
   136   69  135 1    
   137   70   71 1    
   138   71  136 1    
   139   71  137 1    
@<TRIPOS>SUBSTRUCTURE
     1 UNK         1 GROUP             0       ****    0 ROOT    
