@<TRIPOS>MOLECULE
3R136
137   139    1
SMALL
USER_CHARGES


@<TRIPOS>ATOM
      1 CA         29.0983   27.6195   -1.8506 C.3       0 UNK        -0.1979 
      2 C          28.7053   26.4971   -0.9033 C.2       0 UNK         0.4864 
      3 O          27.6857   26.6076   -0.2166 O.2       0 UNK        -0.5359 
      4 N          29.5110   25.4250   -0.8636 N.am      1 UNK        -0.4318 
      5 CA         29.3371   24.2397   -0.0143 C.3       1 UNK         0.0824 
      6 C6         30.4981   23.2217   -0.1644 C.3       12 UNK        -0.0944 
      7 S7         32.1343   23.9345    0.2030 S.3       12 UNK        -0.2672 
      8 C8         32.4907   23.2125    1.8354 C.3       12 UNK         0.0333 
      9 C9         31.6616   23.8699    2.9272 C.ar      12 UNK        -0.0807 
     10 C10        32.0007   25.1497    3.3718 C.ar      12 UNK        -0.0894 
     11 C11        31.2515   25.7782    4.3679 C.ar      12 UNK        -0.0804 
     12 C12        30.1756   25.1004    4.9459 C.ar      12 UNK        -0.0824 
     13 C13        29.8245   23.8169    4.5128 C.ar      12 UNK        -0.0762 
     14 C14        30.5689   23.2078    3.4971 C.ar      12 UNK        -0.0782 
     15 C15        28.6549   23.0812    5.1561 C.3       12 UNK         0.0230 
     16 S16        27.0960   23.3095    4.2376 S.3       12 UNK        -0.2608 
     17 C17        26.8011   25.0948    4.4612 C.3       12 UNK        -0.0989 
     18 CA         27.1273   25.8796    3.1567 C.3       5 UNK         0.0716 
     19 N          26.0301   25.8498    2.1749 N.am      5 UNK        -0.4135 
     20 C          24.8567   26.4925    2.3031 C.2       4 UNK         0.5031 
     21 O          24.5014   27.0405    3.3483 O.2       4 UNK        -0.5229 
     22 CA         23.9270   26.5926    1.0807 C.3       4 UNK         0.0329 
     23 CB         23.2941   28.0012    0.9822 C.3       4 UNK        -0.2001 
     24 N          24.5799   26.2521   -0.1888 N.am      4 UNK        -0.4303 
     25 C          23.9020   25.9372   -1.3029 C.2       3 UNK         0.5044 
     26 O          22.6751   25.8398   -1.3594 O.2       3 UNK        -0.5152 
     27 CA         24.7263   25.6851   -2.5737 C.3       3 UNK         0.0319 
     28 CB         25.4085   26.9743   -3.0630 C.3       3 UNK        -0.2001 
     29 N          25.7183   24.6298   -2.3798 N.am      3 UNK        -0.4354 
     30 C          25.4248   23.3321   -2.2042 C.2       2 UNK         0.4964 
     31 O          24.2813   22.8762   -2.2362 O.2       2 UNK        -0.5047 
     32 CA         26.6010   22.3687   -1.9676 C.3       2 UNK         0.0288 
     33 CB         26.9182   21.5803   -3.2494 C.3       2 UNK        -0.2113 
     34 N          27.8197   23.0362   -1.5048 N.am      2 UNK        -0.4145 
     35 C          27.9838   23.5549   -0.2795 C.2       1 UNK         0.5006 
     36 O          27.1133   23.5517    0.5908 O.2       1 UNK        -0.5103 
     37 C          27.6114   27.3311    3.3901 C.2       5 UNK         0.5055 
     38 O          27.7688   27.7685    4.5315 O.2       5 UNK        -0.5220 
     39 N          27.8011   28.0603    2.2827 N.am      6 UNK        -0.4450 
     40 CA         28.0692   29.4978    2.2489 C.3       6 UNK         0.0367 
     41 CB         26.7956   30.2265    1.7791 C.3       6 UNK        -0.1929 
     42 C          29.2879   29.8100    1.3676 C.2       6 UNK         0.5070 
     43 O          29.2908   30.8116    0.6490 O.2       6 UNK        -0.5237 
     44 N          30.3074   28.9429    1.4174 N.am      7 UNK        -0.4739 
     45 CA         31.5771   29.1186    0.7113 C.3       7 UNK         0.0276 
     46 CB         32.2834   27.7583    0.5888 C.3       7 UNK        -0.1927 
     47 C          32.4530   30.1668    1.4221 C.2       7 UNK         0.5013 
     48 O          33.3262   29.7984    2.2085 O.2       7 UNK        -0.5193 
     49 N          32.1785   31.4461    1.1299 N.am      8 UNK        -0.4253 
     50 CA         32.8209   32.6553    1.6626 C.3       8 UNK         0.0242 
     51 CB         34.3378   32.6566    1.3608 C.3       8 UNK        -0.2000 
     52 C          32.5067   32.9049    3.1525 C.2       8 UNK         0.4948 
     53 O          31.6526   32.2329    3.7355 O.2       8 UNK        -0.5275 
     54 N          33.1757   33.9122    3.7327 N.am      9 UNK        -0.4246 
     55 CA         33.0057   34.3454    5.1250 C.3       9 UNK         0.0261 
     56 CB         33.6508   35.7298    5.3043 C.3       9 UNK        -0.1959 
     57 C          33.5683   33.3540    6.1607 C.2       9 UNK         0.5033 
     58 O          33.1236   33.3702    7.3097 O.2       9 UNK        -0.5390 
     59 N          34.5239   32.5171    5.7448 N.am      10 UNK        -0.4215 
     60 CA         35.0926   31.4190    6.5159 C.3       10 UNK         0.0240 
     61 CB         36.4095   31.8634    7.1751 C.3       10 UNK        -0.1982 
     62 C          35.3164   30.2590    5.5436 C.2       10 UNK         0.4970 
     63 O          35.7368   30.4997    4.4095 O.2       10 UNK        -0.4916 
     64 N          35.0280   29.0378    6.0032 N.am      11 UNK        -0.4279 
     65 CA         35.0230   27.8134    5.1853 C.3       11 UNK         0.1003 
     66 C          36.4269   27.2827    4.7717 C.2       11 UNK         0.5709 
     67 N          37.5225   27.7951    5.3198 N.am      11 UNK        -0.7358 
     68 O          36.5227   26.3886    3.9344 O.2       11 UNK        -0.4999 
     69 C69        34.1764   26.6881    5.8422 C.3       12 UNK        -0.0954 
     70 S70        32.5138   27.2305    6.3703 S.3       12 UNK        -0.2268 
     71 C71        31.5869   27.1956    4.8064 C.3       12 UNK         0.0203 
     72 H72        28.8618   28.5874   -1.4098 H         1 UNK         0.0888 
     73 H73        30.1652   27.6037   -2.0721 H         1 UNK         0.0888 
     74 H74        28.5518   27.5306   -2.7885 H         1 UNK         0.0888 
     75 H75        30.3366   25.4110   -1.4456 H         1 UNK         0.3017 
     76 H76        29.3318   24.5846    1.0205 H         1 UNK         0.0873 
     77 H77        30.5449   22.8293   -1.1817 H         1 UNK         0.0745 
     78 H78        30.3316   22.3564    0.4802 H         1 UNK         0.0745 
     79 H79        32.3269   22.1341    1.8101 H         1 UNK         0.0705 
     80 H80        33.5500   23.3527    2.0562 H         1 UNK         0.0705 
     81 H81        32.8520   25.6534    2.9371 H         1 UNK         0.1334 
     82 H82        29.6121   25.5817    5.7331 H         1 UNK         0.1417 
     83 H83        30.3010   22.2163    3.1580 H         1 UNK         0.1562 
     84 H84        28.5201   23.4080    6.1885 H         1 UNK         0.0748 
     85 H85        28.8770   22.0142    5.2068 H         1 UNK         0.0748 
     86 H86        27.3904   25.4347    5.3117 H         1 UNK         0.0940 
     87 H87        25.7649   25.2431    4.7660 H         1 UNK         0.0940 
     88 H88        27.9759   25.3926    2.6772 H         1 UNK         0.0703 
     89 H89        26.2403   25.3426    1.3230 H         1 UNK         0.3081 
     90 H90        23.1293   25.8684    1.2590 H         1 UNK         0.0719 
     91 H91        22.5660   28.0663    0.1741 H         1 UNK         0.0809 
     92 H92        24.0522   28.7660    0.8101 H         1 UNK         0.0809 
     93 H93        22.7641   28.2668    1.8977 H         1 UNK         0.0809 
     94 H94        25.5904   26.3390   -0.2310 H         1 UNK         0.2990 
     95 H95        24.0398   25.3562   -3.3572 H         1 UNK         0.0690 
     96 H96        25.9727   26.8030   -3.9799 H         1 UNK         0.0788 
     97 H97        26.0897   27.3878   -2.3200 H         1 UNK         0.0788 
     98 H98        24.6663   27.7436   -3.2804 H         1 UNK         0.0788 
     99 H99        26.6850   24.9123   -2.3310 H         1 UNK         0.2993 
    100 H100       26.2873   21.6605   -1.1972 H         1 UNK         0.0949 
    101 H101       27.6995   20.8396   -3.0771 H         1 UNK         0.0767 
    102 H102       26.0381   21.0422   -3.6048 H         1 UNK         0.0767 
    103 H103       27.2469   22.2359   -4.0569 H         1 UNK         0.0767 
    104 H104       28.5777   23.1054   -2.1683 H         1 UNK         0.3013 
    105 H105       27.6920   27.6036    1.3782 H         1 UNK         0.3121 
    106 H106       28.3192   29.8615    3.2476 H         1 UNK         0.0774 
    107 H107       26.9325   31.3085    1.7934 H         1 UNK         0.0815 
    108 H108       26.5241   29.9425    0.7616 H         1 UNK         0.0815 
    109 H109       25.9488   29.9999    2.4273 H         1 UNK         0.0815 
    110 H110       30.2397   28.1577    2.0479 H         1 UNK         0.2987 
    111 H111       31.3741   29.4741   -0.3017 H         1 UNK         0.0949 
    112 H112       32.5439   27.3538    1.5641 H         1 UNK         0.0806 
    113 H113       31.6619   27.0256    0.0774 H         1 UNK         0.0806 
    114 H114       33.2098   27.8514    0.0208 H         1 UNK         0.0806 
    115 H115       31.3519   31.6092    0.5663 H         1 UNK         0.3010 
    116 H116       32.3737   33.4871    1.1162 H         1 UNK         0.0829 
    117 H117       34.5337   32.3959    0.3206 H         1 UNK         0.0813 
    118 H118       34.7806   33.6389    1.5264 H         1 UNK         0.0813 
    119 H119       34.8779   31.9456    1.9877 H         1 UNK         0.0813 
    120 H120       33.8425   34.4308    3.1790 H         1 UNK         0.3038 
    121 H121       31.9350   34.4417    5.3187 H         1 UNK         0.0769 
    122 H122       33.5138   36.0946    6.3234 H         1 UNK         0.0811 
    123 H123       33.2037   36.4669    4.6369 H         1 UNK         0.0811 
    124 H124       34.7238   35.7048    5.1097 H         1 UNK         0.0811 
    125 H125       34.7953   32.5261    4.7698 H         1 UNK         0.3204 
    126 H126       34.3873   31.1032    7.2882 H         1 UNK         0.0748 
    127 H127       36.8497   31.0517    7.7555 H         1 UNK         0.0771 
    128 H128       37.1468   32.1751    6.4339 H         1 UNK         0.0771 
    129 H129       36.2472   32.6988    7.8566 H         1 UNK         0.0771 
    130 H130       34.7034   28.9289    6.9526 H         1 UNK         0.2980 
    131 H131       34.5322   28.0728    4.2452 H         1 UNK         0.0545 
    132 H132       37.4544   28.5340    6.0005 H         1 UNK         0.3459 
    133 H133       38.4250   27.4445    5.0407 H         1 UNK         0.3459 
    134 H134       34.6881   26.3066    6.7275 H         1 UNK         0.0616 
    135 H135       34.0734   25.8367    5.1684 H         1 UNK         0.0616 
    136 H136       30.6619   27.7589    4.9392 H         1 UNK         0.0634 
    137 H137       32.1497   27.7216    4.0340 H         1 UNK         0.0634 
@<TRIPOS>BOND
     1    1    2 1    
     2    1   72 1    
     3    1   73 1    
     4    1   74 1    
     5    2    3 2    
     6    2    4 am   BACKBONE|DICT|INTERRES
     7    4    5 1    
     8    4   75 1    
     9    5    6 1    
    10    5   35 1    
    11    5   76 1    
    12    6    7 1    
    13    6   77 1    
    14    6   78 1    
    15    7    8 1    
    16    8    9 1    
    17    8   79 1    
    18    8   80 1    
    19    9   10 ar   
    20    9   14 ar   
    21   10   11 ar   
    22   10   81 1    
    23   11   12 ar   
    24   11   71 1    
    25   12   13 ar   
    26   12   82 1    
    27   13   14 ar   
    28   13   15 1    
    29   14   83 1    
    30   15   16 1    
    31   15   84 1    
    32   15   85 1    
    33   16   17 1    
    34   17   18 1    
    35   17   86 1    
    36   17   87 1    
    37   18   19 1    
    38   18   37 1    
    39   18   88 1    
    40   19   20 am   BACKBONE|DICT|INTERRES
    41   19   89 1    
    42   20   21 2    
    43   20   22 1    
    44   22   23 1    
    45   22   24 1    
    46   22   90 1    
    47   23   91 1    
    48   23   92 1    
    49   23   93 1    
    50   24   25 am   BACKBONE|DICT|INTERRES
    51   24   94 1    
    52   25   26 2    
    53   25   27 1    
    54   27   28 1    
    55   27   29 1    
    56   27   95 1    
    57   28   96 1    
    58   28   97 1    
    59   28   98 1    
    60   29   30 am   BACKBONE|DICT|INTERRES
    61   29   99 1    
    62   30   31 2    
    63   30   32 1    
    64   32   33 1    
    65   32   34 1    
    66   32  100 1    
    67   33  101 1    
    68   33  102 1    
    69   33  103 1    
    70   34   35 am   BACKBONE|DICT|INTERRES
    71   34  104 1    
    72   35   36 2    
    73   37   38 2    
    74   37   39 am   BACKBONE|DICT|INTERRES
    75   39   40 1    
    76   39  105 1    
    77   40   41 1    
    78   40   42 1    
    79   40  106 1    
    80   41  107 1    
    81   41  108 1    
    82   41  109 1    
    83   42   43 2    
    84   42   44 am   BACKBONE|DICT|INTERRES
    85   44   45 1    
    86   44  110 1    
    87   45   46 1    
    88   45   47 1    
    89   45  111 1    
    90   46  112 1    
    91   46  113 1    
    92   46  114 1    
    93   47   48 2    
    94   47   49 am   BACKBONE|DICT|INTERRES
    95   49   50 1    
    96   49  115 1    
    97   50   51 1    
    98   50   52 1    
    99   50  116 1    
   100   51  117 1    
   101   51  118 1    
   102   51  119 1    
   103   52   53 2    
   104   52   54 am   BACKBONE|DICT|INTERRES
   105   54   55 1    
   106   54  120 1    
   107   55   56 1    
   108   55   57 1    
   109   55  121 1    
   110   56  122 1    
   111   56  123 1    
   112   56  124 1    
   113   57   58 2    
   114   57   59 am   BACKBONE|DICT|INTERRES
   115   59   60 1    
   116   59  125 1    
   117   60   61 1    
   118   60   62 1    
   119   60  126 1    
   120   61  127 1    
   121   61  128 1    
   122   61  129 1    
   123   62   63 2    
   124   62   64 am   BACKBONE|DICT|INTERRES
   125   64   65 1    
   126   64  130 1    
   127   65   66 1    
   128   65   69 1    
   129   65  131 1    
   130   66   67 am   BACKBONE|DICT|INTERRES
   131   66   68 2    
   132   67  132 1    
   133   67  133 1    
   134   69   70 1    
   135   69  134 1    
   136   69  135 1    
   137   70   71 1    
   138   71  136 1    
   139   71  137 1    
@<TRIPOS>SUBSTRUCTURE
     1 UNK         1 GROUP             0       ****    0 ROOT    
