@<TRIPOS>MOLECULE
3R136
137   139    1
SMALL
USER_CHARGES


@<TRIPOS>ATOM
      1 CA         26.7113   22.5650    3.5038 C.3       0 UNK        -0.1979 
      2 C          27.3801   22.6942    2.1450 C.2       0 UNK         0.4864 
      3 O          27.5001   23.8026    1.6181 O.2       0 UNK        -0.5359 
      4 N          27.7893   21.5548    1.5690 N.am      1 UNK        -0.4318 
      5 CA         28.3492   21.4142    0.2169 C.3       1 UNK         0.0824 
      6 C6         29.7565   22.0620    0.0595 C.3       12 UNK        -0.0944 
      7 S7         30.9707   21.2958    1.1850 S.3       12 UNK        -0.2672 
      8 C8         32.4041   22.4177    1.0295 C.3       12 UNK         0.0333 
      9 C9         32.2505   23.7539    1.7556 C.ar      12 UNK        -0.0807 
     10 C10        32.7951   24.9113    1.1883 C.ar      12 UNK        -0.0894 
     11 C11        32.6879   26.1430    1.8418 C.ar      12 UNK        -0.0804 
     12 C12        32.0349   26.2175    3.0745 C.ar      12 UNK        -0.0824 
     13 C13        31.5005   25.0699    3.6626 C.ar      12 UNK        -0.0762 
     14 C14        31.6181   23.8417    3.0023 C.ar      12 UNK        -0.0782 
     15 C15        30.8163   25.1450    5.0197 C.3       12 UNK         0.0230 
     16 S16        29.0503   24.7329    4.8875 S.3       12 UNK        -0.2608 
     17 C17        28.2055   26.3370    5.0772 C.3       12 UNK        -0.0989 
     18 CA         28.5493   27.4180    4.0212 C.3       5 UNK         0.0716 
     19 N          28.4903   26.9315    2.6363 N.am      5 UNK        -0.4135 
     20 C          28.8975   27.6484    1.5764 C.2       4 UNK         0.5031 
     21 O          29.3639   28.7840    1.6577 O.2       4 UNK        -0.5229 
     22 CA         28.6906   27.0377    0.1866 C.3       4 UNK         0.0329 
     23 CB         29.9005   26.1974   -0.2348 C.3       4 UNK        -0.2001 
     24 N          27.4889   26.2148    0.1166 N.am      4 UNK        -0.4303 
     25 C          26.2403   26.6841    0.0119 C.2       3 UNK         0.5044 
     26 O          25.9562   27.8812    0.0797 O.2       3 UNK        -0.5152 
     27 CA         25.1399   25.6260   -0.2208 C.3       3 UNK         0.0319 
     28 CB         23.8400   26.2285   -0.7931 C.3       3 UNK        -0.2001 
     29 N          25.6092   24.4998   -1.0453 N.am      3 UNK        -0.4354 
     30 C          26.1203   24.5509   -2.2875 C.2       2 UNK         0.4964 
     31 O          26.1352   25.5698   -2.9801 O.2       2 UNK        -0.5047 
     32 CA         26.7754   23.2563   -2.8183 C.3       2 UNK         0.0288 
     33 CB         27.5547   23.4790   -4.1290 C.3       2 UNK        -0.2113 
     34 N          27.6837   22.6655   -1.8266 N.am      2 UNK        -0.4145 
     35 C          27.2983   21.8596   -0.8280 C.2       1 UNK         0.5006 
     36 O          26.1290   21.4888   -0.6908 O.2       1 UNK        -0.5103 
     37 C          27.6568   28.6584    4.2476 C.2       5 UNK         0.5055 
     38 O          27.9922   29.5024    5.0779 O.2       5 UNK        -0.5220 
     39 N          26.5421   28.7482    3.5059 N.am      6 UNK        -0.4450 
     40 CA         25.6351   29.8967    3.5130 C.3       6 UNK         0.0367 
     41 CB         24.2814   29.4822    2.9137 C.3       6 UNK        -0.1929 
     42 C          26.2116   31.1092    2.7612 C.2       6 UNK         0.5070 
     43 O          25.8849   32.2423    3.1150 O.2       6 UNK        -0.5237 
     44 N          27.0498   30.8595    1.7449 N.am      7 UNK        -0.4739 
     45 CA         27.7485   31.8926    0.9803 C.3       7 UNK         0.0276 
     46 CB         28.1767   31.3337   -0.3872 C.3       7 UNK        -0.1927 
     47 C          28.9510   32.4511    1.7566 C.2       7 UNK         0.5013 
     48 O          29.0850   33.6714    1.8594 O.2       7 UNK        -0.5193 
     49 N          29.7870   31.5589    2.3030 N.am      8 UNK        -0.4253 
     50 CA         30.9549   31.8978    3.1100 C.3       8 UNK         0.0242 
     51 CB         32.1171   32.3668    2.2109 C.3       8 UNK        -0.2000 
     52 C          31.3500   30.6758    3.9424 C.2       8 UNK         0.4948 
     53 O          31.9427   29.7435    3.4035 O.2       8 UNK        -0.5275 
     54 N          31.0389   30.6999    5.2449 N.am      9 UNK        -0.4246 
     55 CA         31.3684   29.6274    6.1928 C.3       9 UNK         0.0261 
     56 CB         30.6447   29.8836    7.5244 C.3       9 UNK        -0.1959 
     57 C          32.8794   29.4410    6.4281 C.2       9 UNK         0.5033 
     58 O          33.3000   28.3383    6.7795 O.2       9 UNK        -0.5390 
     59 N          33.6587   30.5106    6.2260 N.am      10 UNK        -0.4215 
     60 CA         35.1153   30.5402    6.3372 C.3       10 UNK         0.0240 
     61 CB         35.5145   31.4934    7.4806 C.3       10 UNK        -0.1982 
     62 C          35.7209   30.9402    4.9824 C.2       10 UNK         0.4970 
     63 O          36.4474   31.9318    4.8977 O.2       10 UNK        -0.4916 
     64 N          35.3927   30.1684    3.9387 N.am      11 UNK        -0.4279 
     65 CA         35.9176   30.3265    2.5712 C.3       11 UNK         0.1003 
     66 C          37.4388   30.0347    2.3963 C.2       11 UNK         0.5709 
     67 N          38.1105   29.3951    3.3470 N.am      11 UNK        -0.7358 
     68 O          38.0218   30.4093    1.3814 O.2       11 UNK        -0.4999 
     69 C69        35.0618   29.5483    1.5359 C.3       12 UNK        -0.0954 
     70 S70        34.9077   27.7673    1.9115 S.3       12 UNK        -0.2268 
     71 C71        33.2661   27.4030    1.2211 C.3       12 UNK         0.0203 
     72 H72        25.8606   21.8863    3.4507 H         1 UNK         0.0888 
     73 H73        27.4168   22.1828    4.2410 H         1 UNK         0.0888 
     74 H74        26.3501   23.5336    3.8484 H         1 UNK         0.0888 
     75 H75        27.6396   20.6839    2.0581 H         1 UNK         0.3017 
     76 H76        28.4664   20.3420    0.0518 H         1 UNK         0.0873 
     77 H77        30.1363   21.9355   -0.9557 H         1 UNK         0.0745 
     78 H78        29.7180   23.1334    0.2551 H         1 UNK         0.0745 
     79 H79        33.2807   21.9114    1.4352 H         1 UNK         0.0705 
     80 H80        32.6053   22.5777   -0.0310 H         1 UNK         0.0705 
     81 H81        33.3033   24.8565    0.2353 H         1 UNK         0.1334 
     82 H82        31.9545   27.1715    3.5770 H         1 UNK         0.1417 
     83 H83        31.2085   22.9537    3.4637 H         1 UNK         0.1562 
     84 H84        30.9448   26.1263    5.4787 H         1 UNK         0.0748 
     85 H85        31.2919   24.4309    5.6932 H         1 UNK         0.0748 
     86 H86        28.4222   26.7120    6.0798 H         1 UNK         0.0940 
     87 H87        27.1341   26.1257    5.0657 H         1 UNK         0.0940 
     88 H88        29.5779   27.7394    4.1893 H         1 UNK         0.0703 
     89 H89        28.1517   25.9880    2.4936 H         1 UNK         0.3081 
     90 H90        28.5842   27.8581   -0.5268 H         1 UNK         0.0719 
     91 H91        30.0939   25.3988    0.4807 H         1 UNK         0.0809 
     92 H92        29.7548   25.7472   -1.2168 H         1 UNK         0.0809 
     93 H93        30.7967   26.8150   -0.2914 H         1 UNK         0.0809 
     94 H94        27.6088   25.2116    0.2155 H         1 UNK         0.2990 
     95 H95        24.9096   25.2098    0.7610 H         1 UNK         0.0690 
     96 H96        23.0775   25.4631   -0.9366 H         1 UNK         0.0788 
     97 H97        24.0090   26.7191   -1.7521 H         1 UNK         0.0788 
     98 H98        23.4248   26.9759   -0.1157 H         1 UNK         0.0788 
     99 H99        25.6480   23.6029   -0.5743 H         1 UNK         0.2993 
    100 H100       25.9652   22.5555   -3.0324 H         1 UNK         0.0949 
    101 H101       28.3672   24.1953   -3.9994 H         1 UNK         0.0767 
    102 H102       27.9839   22.5473   -4.4983 H         1 UNK         0.0767 
    103 H103       26.9011   23.8638   -4.9132 H         1 UNK         0.0767 
    104 H104       28.6488   22.9578   -1.8716 H         1 UNK         0.3013 
    105 H105       26.3429   28.0160    2.8398 H         1 UNK         0.3121 
    106 H106       25.4694   30.1985    4.5497 H         1 UNK         0.0774 
    107 H107       24.3756   29.1761    1.8713 H         1 UNK         0.0815 
    108 H108       23.5732   30.3114    2.9451 H         1 UNK         0.0815 
    109 H109       23.8362   28.6564    3.4687 H         1 UNK         0.0815 
    110 H110       27.2853   29.8999    1.5320 H         1 UNK         0.2987 
    111 H111       27.0556   32.7178    0.7999 H         1 UNK         0.0949 
    112 H112       28.8941   30.5187   -0.2920 H         1 UNK         0.0806 
    113 H113       27.3198   30.9600   -0.9481 H         1 UNK         0.0806 
    114 H114       28.6474   32.1098   -0.9920 H         1 UNK         0.0806 
    115 H115       29.6227   30.5623    2.1567 H         1 UNK         0.3010 
    116 H116       30.6943   32.7112    3.7906 H         1 UNK         0.0829 
    117 H117       31.8898   33.3178    1.7296 H         1 UNK         0.0813 
    118 H118       33.0314   32.5064    2.7894 H         1 UNK         0.0813 
    119 H119       32.3328   31.6409    1.4265 H         1 UNK         0.0813 
    120 H120       30.5163   31.4831    5.6110 H         1 UNK         0.3038 
    121 H121       30.9921   28.6908    5.7792 H         1 UNK         0.0769 
    122 H122       30.9609   30.8211    7.9835 H         1 UNK         0.0811 
    123 H123       30.8487   29.0851    8.2393 H         1 UNK         0.0811 
    124 H124       29.5639   29.9228    7.3867 H         1 UNK         0.0811 
    125 H125       33.2185   31.3627    5.9089 H         1 UNK         0.3204 
    126 H126       35.5049   29.5481    6.5750 H         1 UNK         0.0748 
    127 H127       36.5981   31.5275    7.6019 H         1 UNK         0.0771 
    128 H128       35.1724   32.5127    7.2972 H         1 UNK         0.0771 
    129 H129       35.0938   31.1659    8.4315 H         1 UNK         0.0771 
    130 H130       34.7682   29.3863    4.0772 H         1 UNK         0.2980 
    131 H131       35.8068   31.3846    2.3264 H         1 UNK         0.0545 
    132 H132       39.0947   29.2186    3.2221 H         1 UNK         0.3459 
    133 H133       37.6400   29.0720    4.1762 H         1 UNK         0.3459 
    134 H134       35.4602   29.6632    0.5263 H         1 UNK         0.0616 
    135 H135       34.0645   29.9872    1.5094 H         1 UNK         0.0616 
    136 H136       33.3485   27.2991    0.1384 H         1 UNK         0.0634 
    137 H137       32.5822   28.2337    1.3971 H         1 UNK         0.0634 
@<TRIPOS>BOND
     1    1    2 1    
     2    1   72 1    
     3    1   73 1    
     4    1   74 1    
     5    2    3 2    
     6    2    4 am   BACKBONE|DICT|INTERRES
     7    4    5 1    
     8    4   75 1    
     9    5    6 1    
    10    5   35 1    
    11    5   76 1    
    12    6    7 1    
    13    6   77 1    
    14    6   78 1    
    15    7    8 1    
    16    8    9 1    
    17    8   79 1    
    18    8   80 1    
    19    9   10 ar   
    20    9   14 ar   
    21   10   11 ar   
    22   10   81 1    
    23   11   12 ar   
    24   11   71 1    
    25   12   13 ar   
    26   12   82 1    
    27   13   14 ar   
    28   13   15 1    
    29   14   83 1    
    30   15   16 1    
    31   15   84 1    
    32   15   85 1    
    33   16   17 1    
    34   17   18 1    
    35   17   86 1    
    36   17   87 1    
    37   18   19 1    
    38   18   37 1    
    39   18   88 1    
    40   19   20 am   BACKBONE|DICT|INTERRES
    41   19   89 1    
    42   20   21 2    
    43   20   22 1    
    44   22   23 1    
    45   22   24 1    
    46   22   90 1    
    47   23   91 1    
    48   23   92 1    
    49   23   93 1    
    50   24   25 am   BACKBONE|DICT|INTERRES
    51   24   94 1    
    52   25   26 2    
    53   25   27 1    
    54   27   28 1    
    55   27   29 1    
    56   27   95 1    
    57   28   96 1    
    58   28   97 1    
    59   28   98 1    
    60   29   30 am   BACKBONE|DICT|INTERRES
    61   29   99 1    
    62   30   31 2    
    63   30   32 1    
    64   32   33 1    
    65   32   34 1    
    66   32  100 1    
    67   33  101 1    
    68   33  102 1    
    69   33  103 1    
    70   34   35 am   BACKBONE|DICT|INTERRES
    71   34  104 1    
    72   35   36 2    
    73   37   38 2    
    74   37   39 am   BACKBONE|DICT|INTERRES
    75   39   40 1    
    76   39  105 1    
    77   40   41 1    
    78   40   42 1    
    79   40  106 1    
    80   41  107 1    
    81   41  108 1    
    82   41  109 1    
    83   42   43 2    
    84   42   44 am   BACKBONE|DICT|INTERRES
    85   44   45 1    
    86   44  110 1    
    87   45   46 1    
    88   45   47 1    
    89   45  111 1    
    90   46  112 1    
    91   46  113 1    
    92   46  114 1    
    93   47   48 2    
    94   47   49 am   BACKBONE|DICT|INTERRES
    95   49   50 1    
    96   49  115 1    
    97   50   51 1    
    98   50   52 1    
    99   50  116 1    
   100   51  117 1    
   101   51  118 1    
   102   51  119 1    
   103   52   53 2    
   104   52   54 am   BACKBONE|DICT|INTERRES
   105   54   55 1    
   106   54  120 1    
   107   55   56 1    
   108   55   57 1    
   109   55  121 1    
   110   56  122 1    
   111   56  123 1    
   112   56  124 1    
   113   57   58 2    
   114   57   59 am   BACKBONE|DICT|INTERRES
   115   59   60 1    
   116   59  125 1    
   117   60   61 1    
   118   60   62 1    
   119   60  126 1    
   120   61  127 1    
   121   61  128 1    
   122   61  129 1    
   123   62   63 2    
   124   62   64 am   BACKBONE|DICT|INTERRES
   125   64   65 1    
   126   64  130 1    
   127   65   66 1    
   128   65   69 1    
   129   65  131 1    
   130   66   67 am   BACKBONE|DICT|INTERRES
   131   66   68 2    
   132   67  132 1    
   133   67  133 1    
   134   69   70 1    
   135   69  134 1    
   136   69  135 1    
   137   70   71 1    
   138   71  136 1    
   139   71  137 1    
@<TRIPOS>SUBSTRUCTURE
     1 UNK         1 GROUP             0       ****    0 ROOT    
