@<TRIPOS>MOLECULE
3R136
137   139    1
SMALL
USER_CHARGES


@<TRIPOS>ATOM
      1 CA         32.7853   25.6765   -1.5353 C.3       0 UNK        -0.1979 
      2 C          31.3793   25.4255   -1.0133 C.2       0 UNK         0.4864 
      3 O          30.7229   26.3558   -0.5514 O.2       0 UNK        -0.5359 
      4 N          30.9000   24.1792   -1.0982 N.am      1 UNK        -0.4318 
      5 CA         29.6224   23.6919   -0.5544 C.3       1 UNK         0.0824 
      6 C6         29.6507   22.1482   -0.3594 C.3       12 UNK        -0.0944 
      7 S7         31.1945   21.4925    0.3696 S.3       12 UNK        -0.2672 
      8 C8         30.7983   21.3908    2.1473 C.3       12 UNK         0.0333 
      9 C9         31.0181   22.6803    2.9399 C.ar      12 UNK        -0.0807 
     10 C10        31.9981   23.6204    2.5900 C.ar      12 UNK        -0.0894 
     11 C11        32.2231   24.7498    3.3852 C.ar      12 UNK        -0.0804 
     12 C12        31.4584   24.9346    4.5402 C.ar      12 UNK        -0.0824 
     13 C13        30.4558   24.0273    4.8851 C.ar      12 UNK        -0.0762 
     14 C14        30.2550   22.8950    4.0919 C.ar      12 UNK        -0.0782 
     15 C15        29.5893   24.2758    6.1124 C.3       12 UNK         0.0230 
     16 S16        27.8372   24.5394    5.6804 S.3       12 UNK        -0.2608 
     17 C17        27.9183   25.9731    4.5495 C.3       12 UNK        -0.0989 
     18 CA         27.8685   25.5630    3.0490 C.3       5 UNK         0.0716 
     19 N          26.6752   24.7860    2.7148 N.am      5 UNK        -0.4135 
     20 C          26.6358   23.5083    2.3282 C.2       4 UNK         0.5031 
     21 O          27.5812   22.7278    2.4076 O.2       4 UNK        -0.5229 
     22 CA         25.3283   23.0258    1.6749 C.3       4 UNK         0.0329 
     23 CB         24.2309   22.7448    2.7208 C.3       4 UNK        -0.2001 
     24 N          24.8727   23.9202    0.5988 N.am      4 UNK        -0.4303 
     25 C          24.3878   25.1671    0.6979 C.2       3 UNK         0.5044 
     26 O          24.1433   25.7306    1.7667 O.2       3 UNK        -0.5152 
     27 CA         24.2791   25.9380   -0.6207 C.3       3 UNK         0.0319 
     28 CB         23.6587   27.3389   -0.4600 C.3       3 UNK        -0.2001 
     29 N          25.6301   26.0620   -1.1608 N.am      3 UNK        -0.4354 
     30 C          25.9684   25.9179   -2.4447 C.2       2 UNK         0.4964 
     31 O          25.1588   25.7093   -3.3494 O.2       2 UNK        -0.5047 
     32 CA         27.4647   26.0195   -2.7851 C.3       2 UNK         0.0288 
     33 CB         27.8636   27.4878   -3.0051 C.3       2 UNK        -0.2113 
     34 N          28.3713   25.4223   -1.7983 N.am      2 UNK        -0.4145 
     35 C          28.4049   24.1398   -1.4103 C.2       1 UNK         0.5006 
     36 O          27.5522   23.3147   -1.7469 O.2       1 UNK        -0.5103 
     37 C          27.8919   26.7555    2.0660 C.2       5 UNK         0.5055 
     38 O          27.4503   26.5987    0.9242 O.2       5 UNK        -0.5220 
     39 N          28.3634   27.9296    2.4973 N.am      6 UNK        -0.4450 
     40 CA         28.3231   29.1761    1.7365 C.3       6 UNK         0.0367 
     41 CB         29.4204   29.1962    0.6549 C.3       6 UNK        -0.1929 
     42 C          28.4749   30.3516    2.7056 C.2       6 UNK         0.5070 
     43 O          28.8791   30.1524    3.8532 O.2       6 UNK        -0.5237 
     44 N          28.1606   31.5571    2.2164 N.am      7 UNK        -0.4739 
     45 CA         28.2962   32.8191    2.9527 C.3       7 UNK         0.0276 
     46 CB         27.3130   33.8441    2.3614 C.3       7 UNK        -0.1927 
     47 C          29.7320   33.3814    2.9485 C.2       7 UNK         0.5013 
     48 O          29.9954   34.3517    3.6609 O.2       7 UNK        -0.5193 
     49 N          30.6234   32.7911    2.1386 N.am      8 UNK        -0.4253 
     50 CA         32.0446   33.1310    2.0480 C.3       8 UNK         0.0242 
     51 CB         32.6710   32.3431    0.8854 C.3       8 UNK        -0.2000 
     52 C          32.7865   32.8188    3.3570 C.2       8 UNK         0.4948 
     53 O          32.4717   31.8208    4.0072 O.2       8 UNK        -0.5275 
     54 N          33.7905   33.6424    3.6909 N.am      9 UNK        -0.4246 
     55 CA         34.5756   33.5682    4.9322 C.3       9 UNK         0.0261 
     56 CB         35.6000   34.7143    4.9566 C.3       9 UNK        -0.1959 
     57 C          35.2753   32.2184    5.1789 C.2       9 UNK         0.5033 
     58 O          35.4340   31.8252    6.3350 O.2       9 UNK        -0.5390 
     59 N          35.6398   31.5170    4.0968 N.am      10 UNK        -0.4215 
     60 CA         36.1965   30.1617    4.1209 C.3       10 UNK         0.0240 
     61 CB         36.7333   29.8183    2.7213 C.3       10 UNK        -0.1982 
     62 C          35.2003   29.0812    4.5883 C.2       10 UNK         0.4970 
     63 O          35.6456   28.0146    5.0139 O.2       10 UNK        -0.4916 
     64 N          33.8943   29.3622    4.4962 N.am      11 UNK        -0.4279 
     65 CA         32.7955   28.4652    4.8778 C.3       11 UNK         0.1003 
     66 C          31.9868   28.9713    6.1060 C.2       11 UNK         0.5709 
     67 N          32.3912   30.0426    6.7793 N.am      11 UNK        -0.7358 
     68 O          30.9971   28.3504    6.4865 O.2       11 UNK        -0.4999 
     69 C69        31.8786   28.1547    3.6612 C.3       12 UNK        -0.0954 
     70 S70        32.7123   27.2870    2.2838 S.3       12 UNK        -0.2268 
     71 C71        33.3292   25.7364    3.0270 C.3       12 UNK         0.0203 
     72 H72        33.4114   26.0747   -0.7370 H         1 UNK         0.0888 
     73 H73        33.2507   24.7650   -1.9097 H         1 UNK         0.0888 
     74 H74        32.7602   26.4052   -2.3449 H         1 UNK         0.0888 
     75 H75        31.4806   23.4600   -1.5056 H         1 UNK         0.3017 
     76 H76        29.4906   24.1427    0.4321 H         1 UNK         0.0873 
     77 H77        29.5393   21.6468   -1.3229 H         1 UNK         0.0745 
     78 H78        28.7992   21.8237    0.2401 H         1 UNK         0.0745 
     79 H79        29.7717   21.0401    2.2629 H         1 UNK         0.0705 
     80 H80        31.4323   20.6204    2.5877 H         1 UNK         0.0705 
     81 H81        32.6078   23.4642    1.7115 H         1 UNK         0.1334 
     82 H82        31.6380   25.7883    5.1761 H         1 UNK         0.1417 
     83 H83        29.4858   22.1858    4.3672 H         1 UNK         0.1562 
     84 H84        29.9474   25.1386    6.6768 H         1 UNK         0.0748 
     85 H85        29.6635   23.4183    6.7824 H         1 UNK         0.0748 
     86 H86        28.8267   26.5345    4.7743 H         1 UNK         0.0940 
     87 H87        27.0825   26.6325    4.7912 H         1 UNK         0.0940 
     88 H88        28.7607   24.9790    2.8182 H         1 UNK         0.0703 
     89 H89        25.8354   25.3332    2.5450 H         1 UNK         0.3081 
     90 H90        25.5560   22.0777    1.1846 H         1 UNK         0.0719 
     91 H91        23.3191   22.3777    2.2499 H         1 UNK         0.0809 
     92 H92        23.9756   23.6304    3.3029 H         1 UNK         0.0809 
     93 H93        24.5610   21.9826    3.4277 H         1 UNK         0.0809 
     94 H94        25.0938   23.5955   -0.3337 H         1 UNK         0.2990 
     95 H95        23.6484   25.3490   -1.2900 H         1 UNK         0.0690 
     96 H96        23.5687   27.8432   -1.4222 H         1 UNK         0.0788 
     97 H97        24.2596   27.9722    0.1943 H         1 UNK         0.0788 
     98 H98        22.6583   27.2764   -0.0301 H         1 UNK         0.0788 
     99 H99        26.3676   26.2287   -0.4734 H         1 UNK         0.2993 
    100 H100       27.6166   25.4807   -3.7225 H         1 UNK         0.0949 
    101 H101       27.2367   27.9544   -3.7663 H         1 UNK         0.0767 
    102 H102       27.7575   28.0726   -2.0904 H         1 UNK         0.0767 
    103 H103       28.8978   27.5733   -3.3396 H         1 UNK         0.0767 
    104 H104       29.0991   26.0239   -1.4176 H         1 UNK         0.3013 
    105 H105       28.6833   28.0493    3.4507 H         1 UNK         0.3121 
    106 H106       27.3444   29.2641    1.2594 H         1 UNK         0.0774 
    107 H107       29.4515   30.1498    0.1277 H         1 UNK         0.0815 
    108 H108       30.4098   29.0190    1.0760 H         1 UNK         0.0815 
    109 H109       29.2398   28.4297   -0.0970 H         1 UNK         0.0815 
    110 H110       27.8251   31.6260    1.2654 H         1 UNK         0.2987 
    111 H111       28.0236   32.6486    3.9969 H         1 UNK         0.0949 
    112 H112       27.3520   34.7861    2.9105 H         1 UNK         0.0806 
    113 H113       27.5393   34.0667    1.3178 H         1 UNK         0.0806 
    114 H114       26.2851   33.4849    2.4143 H         1 UNK         0.0806 
    115 H115       30.3168   31.9843    1.6184 H         1 UNK         0.3010 
    116 H116       32.1236   34.2000    1.8393 H         1 UNK         0.0829 
    117 H117       32.1752   32.5667   -0.0595 H         1 UNK         0.0813 
    118 H118       33.7251   32.5954    0.7625 H         1 UNK         0.0813 
    119 H119       32.6110   31.2657    1.0493 H         1 UNK         0.0813 
    120 H120       33.9925   34.4238    3.0832 H         1 UNK         0.3038 
    121 H121       33.8780   33.7190    5.7587 H         1 UNK         0.0769 
    122 H122       36.1820   34.6984    5.8794 H         1 UNK         0.0811 
    123 H123       35.1107   35.6871    4.9035 H         1 UNK         0.0811 
    124 H124       36.3043   34.6453    4.1265 H         1 UNK         0.0811 
    125 H125       35.4685   31.9236    3.1889 H         1 UNK         0.3204 
    126 H126       37.0344   30.1556    4.8213 H         1 UNK         0.0748 
    127 H127       37.1899   28.8274    2.7106 H         1 UNK         0.0771 
    128 H128       35.9389   29.8176    1.9735 H         1 UNK         0.0771 
    129 H129       37.4973   30.5277    2.4024 H         1 UNK         0.0771 
    130 H130       33.5934   30.2819    4.1855 H         1 UNK         0.2980 
    131 H131       33.2123   27.5261    5.2362 H         1 UNK         0.0545 
    132 H132       33.2096   30.5539    6.4867 H         1 UNK         0.3459 
    133 H133       31.8618   30.3488    7.5795 H         1 UNK         0.3459 
    134 H134       31.4792   29.0899    3.2657 H         1 UNK         0.0616 
    135 H135       31.0051   27.5710    3.9482 H         1 UNK         0.0616 
    136 H136       34.0084   25.2778    2.3069 H         1 UNK         0.0634 
    137 H137       33.9431   25.9465    3.9017 H         1 UNK         0.0634 
@<TRIPOS>BOND
     1    1    2 1    
     2    1   72 1    
     3    1   73 1    
     4    1   74 1    
     5    2    3 2    
     6    2    4 am   BACKBONE|DICT|INTERRES
     7    4    5 1    
     8    4   75 1    
     9    5    6 1    
    10    5   35 1    
    11    5   76 1    
    12    6    7 1    
    13    6   77 1    
    14    6   78 1    
    15    7    8 1    
    16    8    9 1    
    17    8   79 1    
    18    8   80 1    
    19    9   10 ar   
    20    9   14 ar   
    21   10   11 ar   
    22   10   81 1    
    23   11   12 ar   
    24   11   71 1    
    25   12   13 ar   
    26   12   82 1    
    27   13   14 ar   
    28   13   15 1    
    29   14   83 1    
    30   15   16 1    
    31   15   84 1    
    32   15   85 1    
    33   16   17 1    
    34   17   18 1    
    35   17   86 1    
    36   17   87 1    
    37   18   19 1    
    38   18   37 1    
    39   18   88 1    
    40   19   20 am   BACKBONE|DICT|INTERRES
    41   19   89 1    
    42   20   21 2    
    43   20   22 1    
    44   22   23 1    
    45   22   24 1    
    46   22   90 1    
    47   23   91 1    
    48   23   92 1    
    49   23   93 1    
    50   24   25 am   BACKBONE|DICT|INTERRES
    51   24   94 1    
    52   25   26 2    
    53   25   27 1    
    54   27   28 1    
    55   27   29 1    
    56   27   95 1    
    57   28   96 1    
    58   28   97 1    
    59   28   98 1    
    60   29   30 am   BACKBONE|DICT|INTERRES
    61   29   99 1    
    62   30   31 2    
    63   30   32 1    
    64   32   33 1    
    65   32   34 1    
    66   32  100 1    
    67   33  101 1    
    68   33  102 1    
    69   33  103 1    
    70   34   35 am   BACKBONE|DICT|INTERRES
    71   34  104 1    
    72   35   36 2    
    73   37   38 2    
    74   37   39 am   BACKBONE|DICT|INTERRES
    75   39   40 1    
    76   39  105 1    
    77   40   41 1    
    78   40   42 1    
    79   40  106 1    
    80   41  107 1    
    81   41  108 1    
    82   41  109 1    
    83   42   43 2    
    84   42   44 am   BACKBONE|DICT|INTERRES
    85   44   45 1    
    86   44  110 1    
    87   45   46 1    
    88   45   47 1    
    89   45  111 1    
    90   46  112 1    
    91   46  113 1    
    92   46  114 1    
    93   47   48 2    
    94   47   49 am   BACKBONE|DICT|INTERRES
    95   49   50 1    
    96   49  115 1    
    97   50   51 1    
    98   50   52 1    
    99   50  116 1    
   100   51  117 1    
   101   51  118 1    
   102   51  119 1    
   103   52   53 2    
   104   52   54 am   BACKBONE|DICT|INTERRES
   105   54   55 1    
   106   54  120 1    
   107   55   56 1    
   108   55   57 1    
   109   55  121 1    
   110   56  122 1    
   111   56  123 1    
   112   56  124 1    
   113   57   58 2    
   114   57   59 am   BACKBONE|DICT|INTERRES
   115   59   60 1    
   116   59  125 1    
   117   60   61 1    
   118   60   62 1    
   119   60  126 1    
   120   61  127 1    
   121   61  128 1    
   122   61  129 1    
   123   62   63 2    
   124   62   64 am   BACKBONE|DICT|INTERRES
   125   64   65 1    
   126   64  130 1    
   127   65   66 1    
   128   65   69 1    
   129   65  131 1    
   130   66   67 am   BACKBONE|DICT|INTERRES
   131   66   68 2    
   132   67  132 1    
   133   67  133 1    
   134   69   70 1    
   135   69  134 1    
   136   69  135 1    
   137   70   71 1    
   138   71  136 1    
   139   71  137 1    
@<TRIPOS>SUBSTRUCTURE
     1 UNK         1 GROUP             0       ****    0 ROOT    
