@<TRIPOS>MOLECULE
3R136
137   139    1
SMALL
USER_CHARGES


@<TRIPOS>ATOM
      1 CA         26.9513   18.8298    0.2171 C.3       0 UNK        -0.1979 
      2 C          28.1486   19.7270   -0.0611 C.2       0 UNK         0.4864 
      3 O          29.2836   19.2482   -0.0676 O.2       0 UNK        -0.5359 
      4 N          27.9026   21.0197   -0.2941 N.am      1 UNK        -0.4318 
      5 CA         28.8978   22.0393   -0.6192 C.3       1 UNK         0.0824 
      6 C6         29.7206   22.4876    0.6212 C.3       12 UNK        -0.0944 
      7 S7         31.3900   23.0738    0.1700 S.3       12 UNK        -0.2672 
      8 C8         31.3450   24.8132    0.7029 C.3       12 UNK         0.0333 
      9 C9         31.5978   24.9584    2.1955 C.ar      12 UNK        -0.0807 
     10 C10        32.9054   25.0420    2.6837 C.ar      12 UNK        -0.0894 
     11 C11        33.1420   25.2397    4.0478 C.ar      12 UNK        -0.0804 
     12 C12        32.0584   25.3565    4.9251 C.ar      12 UNK        -0.0824 
     13 C13        30.7468   25.2588    4.4498 C.ar      12 UNK        -0.0762 
     14 C14        30.5257   25.0461    3.0867 C.ar      12 UNK        -0.0782 
     15 C15        29.5695   25.3813    5.4060 C.3       12 UNK         0.0230 
     16 S16        28.8423   27.0545    5.3592 S.3       12 UNK        -0.2608 
     17 C17        27.1941   26.7445    4.6373 C.3       12 UNK        -0.0989 
     18 CA         27.1727   26.9545    3.0965 C.3       5 UNK         0.0716 
     19 N          26.1641   26.1469    2.4260 N.am      5 UNK        -0.4135 
     20 C          26.2054   24.8240    2.2429 C.2       4 UNK         0.5031 
     21 O          27.0726   24.0915    2.7179 O.2       4 UNK        -0.5229 
     22 CA         25.1161   24.2107    1.3442 C.3       4 UNK         0.0329 
     23 CB         23.7559   24.1231    2.0643 C.3       4 UNK        -0.2001 
     24 N          25.0220   24.8773    0.0381 N.am      4 UNK        -0.4303 
     25 C          24.6261   26.1312   -0.2337 C.2       3 UNK         0.5044 
     26 O          24.1147   26.8812    0.6006 O.2       3 UNK        -0.5152 
     27 CA         24.9240   26.6569   -1.6533 C.3       3 UNK         0.0319 
     28 CB         24.9108   28.1976   -1.7212 C.3       3 UNK        -0.2001 
     29 N          26.1740   26.1282   -2.2204 N.am      3 UNK        -0.4354 
     30 C          27.4054   26.1663   -1.6844 C.2       2 UNK         0.4964 
     31 O          27.6947   26.7049   -0.6131 O.2       2 UNK        -0.5047 
     32 CA         28.4959   25.4141   -2.4669 C.3       2 UNK         0.0288 
     33 CB         29.7104   26.3245   -2.7192 C.3       2 UNK        -0.2113 
     34 N          28.9438   24.1973   -1.7808 N.am      2 UNK        -0.4145 
     35 C          28.1700   23.2053   -1.3162 C.2       1 UNK         0.5006 
     36 O          26.9381   23.1802   -1.4241 O.2       1 UNK        -0.5103 
     37 C          26.9661   28.4122    2.6520 C.2       5 UNK         0.5055 
     38 O          26.3002   29.1815    3.3489 O.2       5 UNK        -0.5220 
     39 N          27.4938   28.7487    1.4653 N.am      6 UNK        -0.4450 
     40 CA         27.5268   30.1012    0.8963 C.3       6 UNK         0.0367 
     41 CB         28.2423   30.0496   -0.4666 C.3       6 UNK        -0.1929 
     42 C          28.2485   31.1153    1.8022 C.2       6 UNK         0.5070 
     43 O          29.1416   30.7364    2.5598 O.2       6 UNK        -0.5237 
     44 N          27.9142   32.4042    1.6504 N.am      7 UNK        -0.4739 
     45 CA         28.5105   33.5200    2.4025 C.3       7 UNK         0.0276 
     46 CB         27.7940   34.8254    2.0203 C.3       7 UNK        -0.1927 
     47 C          30.0360   33.6730    2.2284 C.2       7 UNK         0.5013 
     48 O          30.6910   34.2391    3.1039 O.2       7 UNK        -0.5193 
     49 N          30.5722   33.1511    1.1170 N.am      8 UNK        -0.4253 
     50 CA         32.0031   33.0781    0.8234 C.3       8 UNK         0.0242 
     51 CB         32.1871   32.8451   -0.6855 C.3       8 UNK        -0.2000 
     52 C          32.7519   31.9954    1.6257 C.2       8 UNK         0.4948 
     53 O          33.9826   32.0496    1.6776 O.2       8 UNK        -0.5275 
     54 N          32.0398   31.0292    2.2287 N.am      9 UNK        -0.4246 
     55 CA         32.6193   29.9182    2.9897 C.3       9 UNK         0.0261 
     56 CB         31.6206   28.7476    3.0406 C.3       9 UNK        -0.1959 
     57 C          33.0818   30.3606    4.3908 C.2       9 UNK         0.5033 
     58 O          32.5415   29.9071    5.4018 O.2       9 UNK        -0.5390 
     59 N          34.1056   31.2251    4.4274 N.am      10 UNK        -0.4215 
     60 CA         34.7679   31.7293    5.6395 C.3       10 UNK         0.0240 
     61 CB         35.8104   32.7855    5.2391 C.3       10 UNK        -0.1982 
     62 C          35.4148   30.6300    6.5069 C.2       10 UNK         0.4970 
     63 O          35.6311   30.8462    7.6997 O.2       10 UNK        -0.4916 
     64 N          35.6833   29.4713    5.8951 N.am      11 UNK        -0.4279 
     65 CA         36.0433   28.2039    6.5407 C.3       11 UNK         0.1003 
     66 C          34.9488   27.6047    7.4757 C.2       11 UNK         0.5709 
     67 N          33.6878   28.0147    7.3871 N.am      11 UNK        -0.7358 
     68 O          35.2576   26.7515    8.3040 O.2       11 UNK        -0.4999 
     69 C69        36.5187   27.1705    5.4824 C.3       12 UNK        -0.0954 
     70 S70        35.3179   26.9325    4.1222 S.3       12 UNK        -0.2268 
     71 C71        34.5657   25.3394    4.5729 C.3       12 UNK         0.0203 
     72 H72        26.8936   18.0384   -0.5297 H         1 UNK         0.0888 
     73 H73        27.0498   18.3667    1.1985 H         1 UNK         0.0888 
     74 H74        26.0132   19.3844    0.1970 H         1 UNK         0.0888 
     75 H75        26.9511   21.3635   -0.3489 H         1 UNK         0.3017 
     76 H76        29.5693   21.6005   -1.3609 H         1 UNK         0.0873 
     77 H77        29.1821   23.2369    1.2018 H         1 UNK         0.0745 
     78 H78        29.8696   21.6490    1.3027 H         1 UNK         0.0745 
     79 H79        32.1062   25.3669    0.1510 H         1 UNK         0.0705 
     80 H80        30.3898   25.2670    0.4334 H         1 UNK         0.0705 
     81 H81        33.7407   24.9701    2.0004 H         1 UNK         0.1334 
     82 H82        32.2362   25.5277    5.9782 H         1 UNK         0.1417 
     83 H83        29.5153   24.9602    2.7182 H         1 UNK         0.1562 
     84 H84        29.8902   25.1710    6.4274 H         1 UNK         0.0748 
     85 H85        28.8259   24.6210    5.1638 H         1 UNK         0.0748 
     86 H86        26.4628   27.3791    5.1406 H         1 UNK         0.0940 
     87 H87        26.8935   25.7288    4.8952 H         1 UNK         0.0940 
     88 H88        28.1366   26.6475    2.6917 H         1 UNK         0.0703 
     89 H89        25.4194   26.6607    1.9589 H         1 UNK         0.3081 
     90 H90        25.4316   23.1894    1.1248 H         1 UNK         0.0719 
     91 H91        23.3796   25.1015    2.3633 H         1 UNK         0.0809 
     92 H92        23.0031   23.6541    1.4309 H         1 UNK         0.0809 
     93 H93        23.8383   23.5212    2.9701 H         1 UNK         0.0809 
     94 H94        25.4907   24.3741   -0.7102 H         1 UNK         0.2990 
     95 H95        24.1184   26.2887   -2.2901 H         1 UNK         0.0690 
     96 H96        23.9172   28.5882   -1.4985 H         1 UNK         0.0788 
     97 H97        25.1875   28.5595   -2.7113 H         1 UNK         0.0788 
     98 H98        25.5960   28.6339   -0.9959 H         1 UNK         0.0788 
     99 H99        26.0614   25.6195   -3.0868 H         1 UNK         0.2993 
    100 H100       28.0925   25.1126   -3.4357 H         1 UNK         0.0949 
    101 H101       29.4126   27.2357   -3.2400 H         1 UNK         0.0767 
    102 H102       30.1913   26.6264   -1.7878 H         1 UNK         0.0767 
    103 H103       30.4584   25.8287   -3.3382 H         1 UNK         0.0767 
    104 H104       29.9390   24.1184   -1.6251 H         1 UNK         0.3013 
    105 H105       27.9092   28.0175    0.8957 H         1 UNK         0.3121 
    106 H106       26.4953   30.4287    0.7530 H         1 UNK         0.0774 
    107 H107       28.2565   31.0303   -0.9436 H         1 UNK         0.0815 
    108 H108       29.2779   29.7223   -0.3626 H         1 UNK         0.0815 
    109 H109       27.7519   29.3683   -1.1599 H         1 UNK         0.0815 
    110 H110       27.1862   32.6435    0.9916 H         1 UNK         0.2987 
    111 H111       28.3323   33.3291    3.4631 H         1 UNK         0.0949 
    112 H112       27.9111   35.0552    0.9605 H         1 UNK         0.0806 
    113 H113       26.7271   34.7725    2.2383 H         1 UNK         0.0806 
    114 H114       28.1947   35.6702    2.5827 H         1 UNK         0.0806 
    115 H115       29.9479   32.7128    0.4563 H         1 UNK         0.3010 
    116 H116       32.4549   34.0393    1.0784 H         1 UNK         0.0829 
    117 H117       31.7282   33.6428   -1.2700 H         1 UNK         0.0813 
    118 H118       33.2451   32.8206   -0.9509 H         1 UNK         0.0813 
    119 H119       31.7496   31.8983   -1.0049 H         1 UNK         0.0813 
    120 H120       31.0236   31.0674    2.2113 H         1 UNK         0.3038 
    121 H121       33.5026   29.5583    2.4574 H         1 UNK         0.0769 
    122 H122       30.7284   28.9950    3.6161 H         1 UNK         0.0811 
    123 H123       32.0745   27.8800    3.5182 H         1 UNK         0.0811 
    124 H124       31.3049   28.4408    2.0436 H         1 UNK         0.0811 
    125 H125       34.4376   31.5789    3.5335 H         1 UNK         0.3204 
    126 H126       34.0039   32.2129    6.2515 H         1 UNK         0.0748 
    127 H127       36.3001   33.2056    6.1190 H         1 UNK         0.0771 
    128 H128       36.5887   32.3627    4.6026 H         1 UNK         0.0771 
    129 H129       35.3493   33.6140    4.7007 H         1 UNK         0.0771 
    130 H130       35.4668   29.3965    4.9129 H         1 UNK         0.2980 
    131 H131       36.8950   28.4184    7.1885 H         1 UNK         0.0545 
    132 H132       33.4023   28.6997    6.6938 H         1 UNK         0.3459 
    133 H133       33.0011   27.6221    8.0097 H         1 UNK         0.3459 
    134 H134       37.4498   27.5202    5.0341 H         1 UNK         0.0616 
    135 H135       36.7630   26.2120    5.9443 H         1 UNK         0.0616 
    136 H136       34.5730   25.2178    5.6569 H         1 UNK         0.0634 
    137 H137       35.1709   24.5277    4.1669 H         1 UNK         0.0634 
@<TRIPOS>BOND
     1    1    2 1    
     2    1   72 1    
     3    1   73 1    
     4    1   74 1    
     5    2    3 2    
     6    2    4 am   BACKBONE|DICT|INTERRES
     7    4    5 1    
     8    4   75 1    
     9    5    6 1    
    10    5   35 1    
    11    5   76 1    
    12    6    7 1    
    13    6   77 1    
    14    6   78 1    
    15    7    8 1    
    16    8    9 1    
    17    8   79 1    
    18    8   80 1    
    19    9   10 ar   
    20    9   14 ar   
    21   10   11 ar   
    22   10   81 1    
    23   11   12 ar   
    24   11   71 1    
    25   12   13 ar   
    26   12   82 1    
    27   13   14 ar   
    28   13   15 1    
    29   14   83 1    
    30   15   16 1    
    31   15   84 1    
    32   15   85 1    
    33   16   17 1    
    34   17   18 1    
    35   17   86 1    
    36   17   87 1    
    37   18   19 1    
    38   18   37 1    
    39   18   88 1    
    40   19   20 am   BACKBONE|DICT|INTERRES
    41   19   89 1    
    42   20   21 2    
    43   20   22 1    
    44   22   23 1    
    45   22   24 1    
    46   22   90 1    
    47   23   91 1    
    48   23   92 1    
    49   23   93 1    
    50   24   25 am   BACKBONE|DICT|INTERRES
    51   24   94 1    
    52   25   26 2    
    53   25   27 1    
    54   27   28 1    
    55   27   29 1    
    56   27   95 1    
    57   28   96 1    
    58   28   97 1    
    59   28   98 1    
    60   29   30 am   BACKBONE|DICT|INTERRES
    61   29   99 1    
    62   30   31 2    
    63   30   32 1    
    64   32   33 1    
    65   32   34 1    
    66   32  100 1    
    67   33  101 1    
    68   33  102 1    
    69   33  103 1    
    70   34   35 am   BACKBONE|DICT|INTERRES
    71   34  104 1    
    72   35   36 2    
    73   37   38 2    
    74   37   39 am   BACKBONE|DICT|INTERRES
    75   39   40 1    
    76   39  105 1    
    77   40   41 1    
    78   40   42 1    
    79   40  106 1    
    80   41  107 1    
    81   41  108 1    
    82   41  109 1    
    83   42   43 2    
    84   42   44 am   BACKBONE|DICT|INTERRES
    85   44   45 1    
    86   44  110 1    
    87   45   46 1    
    88   45   47 1    
    89   45  111 1    
    90   46  112 1    
    91   46  113 1    
    92   46  114 1    
    93   47   48 2    
    94   47   49 am   BACKBONE|DICT|INTERRES
    95   49   50 1    
    96   49  115 1    
    97   50   51 1    
    98   50   52 1    
    99   50  116 1    
   100   51  117 1    
   101   51  118 1    
   102   51  119 1    
   103   52   53 2    
   104   52   54 am   BACKBONE|DICT|INTERRES
   105   54   55 1    
   106   54  120 1    
   107   55   56 1    
   108   55   57 1    
   109   55  121 1    
   110   56  122 1    
   111   56  123 1    
   112   56  124 1    
   113   57   58 2    
   114   57   59 am   BACKBONE|DICT|INTERRES
   115   59   60 1    
   116   59  125 1    
   117   60   61 1    
   118   60   62 1    
   119   60  126 1    
   120   61  127 1    
   121   61  128 1    
   122   61  129 1    
   123   62   63 2    
   124   62   64 am   BACKBONE|DICT|INTERRES
   125   64   65 1    
   126   64  130 1    
   127   65   66 1    
   128   65   69 1    
   129   65  131 1    
   130   66   67 am   BACKBONE|DICT|INTERRES
   131   66   68 2    
   132   67  132 1    
   133   67  133 1    
   134   69   70 1    
   135   69  134 1    
   136   69  135 1    
   137   70   71 1    
   138   71  136 1    
   139   71  137 1    
@<TRIPOS>SUBSTRUCTURE
     1 UNK         1 GROUP             0       ****    0 ROOT    
