@<TRIPOS>MOLECULE
3R136
137   139    1
SMALL
USER_CHARGES


@<TRIPOS>ATOM
      1 CA         26.3873   23.8778    0.0086 C.3       0 UNK        -0.1979 
      2 C          26.2370   22.4375   -0.4742 C.2       0 UNK         0.4864 
      3 O          25.1065   21.9779   -0.6286 O.2       0 UNK        -0.5359 
      4 N          27.3156   21.6763   -0.7151 N.am      1 UNK        -0.4318 
      5 CA         28.7387   22.0361   -0.6551 C.3       1 UNK         0.0824 
      6 C6         29.2007   22.5260    0.7481 C.3       12 UNK        -0.0944 
      7 S7         30.9369   22.0804    1.0893 S.3       12 UNK        -0.2672 
      8 C8         30.8166   21.4033    2.7726 C.3       12 UNK         0.0333 
      9 C9         30.5658   22.5032    3.7924 C.ar      12 UNK        -0.0807 
     10 C10        31.6230   23.3126    4.2142 C.ar      12 UNK        -0.0894 
     11 C11        31.4148   24.3192    5.1601 C.ar      12 UNK        -0.0804 
     12 C12        30.1353   24.5102    5.6929 C.ar      12 UNK        -0.0824 
     13 C13        29.0651   23.7139    5.2677 C.ar      12 UNK        -0.0762 
     14 C14        29.2877   22.7106    4.3194 C.ar      12 UNK        -0.0782 
     15 C15        27.6689   23.9155    5.8408 C.3       12 UNK         0.0230 
     16 S16        26.6162   24.9132    4.7364 S.3       12 UNK        -0.2608 
     17 C17        27.3172   26.5810    4.9668 C.3       12 UNK        -0.0989 
     18 CA         28.1951   27.0085    3.7614 C.3       5 UNK         0.0716 
     19 N          27.3798   27.2078    2.5610 N.am      5 UNK        -0.4135 
     20 C          27.7899   27.0070    1.3054 C.2       4 UNK         0.5031 
     21 O          28.8449   26.4470    0.9973 O.2       4 UNK        -0.5229 
     22 CA         26.8561   27.5464    0.2129 C.3       4 UNK         0.0329 
     23 CB         26.7155   29.0784    0.3009 C.3       4 UNK        -0.2001 
     24 N          27.3794   27.1839   -1.0990 N.am      4 UNK        -0.4303 
     25 C          26.6701   27.0627   -2.2245 C.2       3 UNK         0.5044 
     26 O          25.4554   27.2572   -2.2839 O.2       3 UNK        -0.5152 
     27 CA         27.4137   26.6326   -3.5041 C.3       3 UNK         0.0319 
     28 CB         27.8090   27.8567   -4.3533 C.3       3 UNK        -0.2001 
     29 N          28.5552   25.7312   -3.2856 N.am      3 UNK        -0.4354 
     30 C          29.7415   25.9797   -2.7136 C.2       2 UNK         0.4964 
     31 O          30.0671   27.0764   -2.2582 O.2       2 UNK        -0.5047 
     32 CA         30.6920   24.7738   -2.5819 C.3       2 UNK         0.0288 
     33 CB         32.1097   25.1876   -2.1442 C.3       2 UNK        -0.2113 
     34 N          30.1783   23.7870   -1.6288 N.am      2 UNK        -0.4145 
     35 C          29.1483   22.9541   -1.8302 C.2       1 UNK         0.5006 
     36 O          28.5287   22.8941   -2.8963 O.2       1 UNK        -0.5103 
     37 C          28.9882   28.2988    4.0686 C.2       5 UNK         0.5055 
     38 O          28.8316   29.3092    3.3730 O.2       5 UNK        -0.5220 
     39 N          29.8076   28.2529    5.1309 N.am      6 UNK        -0.4450 
     40 CA         30.7211   29.3048    5.6035 C.3       6 UNK         0.0367 
     41 CB         31.3428   28.8716    6.9412 C.3       6 UNK        -0.1929 
     42 C          30.1196   30.7140    5.7557 C.2       6 UNK         0.5070 
     43 O          30.8577   31.6911    5.6437 O.2       6 UNK        -0.5237 
     44 N          28.7993   30.8030    5.9660 N.am      7 UNK        -0.4739 
     45 CA         28.0282   32.0492    6.0029 C.3       7 UNK         0.0276 
     46 CB         26.5680   31.7226    6.3554 C.3       7 UNK        -0.1927 
     47 C          28.0934   32.8778    4.7031 C.2       7 UNK         0.5013 
     48 O          27.9047   34.0934    4.7706 O.2       7 UNK        -0.5193 
     49 N          28.3634   32.2261    3.5619 N.am      8 UNK        -0.4253 
     50 CA         28.5564   32.8798    2.2645 C.3       8 UNK         0.0242 
     51 CB         27.2867   32.7317    1.4111 C.3       8 UNK        -0.2000 
     52 C          29.7962   32.3653    1.5159 C.2       8 UNK         0.4948 
     53 O          30.4281   33.1547    0.8132 O.2       8 UNK        -0.5275 
     54 N          30.1456   31.0792    1.6715 N.am      9 UNK        -0.4246 
     55 CA         31.2962   30.4531    1.0077 C.3       9 UNK         0.0261 
     56 CB         31.0083   28.9575    0.7972 C.3       9 UNK        -0.1959 
     57 C          32.6275   30.6427    1.7579 C.2       9 UNK         0.5033 
     58 O          33.6613   30.2130    1.2431 O.2       9 UNK        -0.5390 
     59 N          32.5943   31.2419    2.9583 N.am      10 UNK        -0.4215 
     60 CA         33.7053   31.5303    3.8803 C.3       10 UNK         0.0240 
     61 CB         34.7550   32.4555    3.2329 C.3       10 UNK        -0.1982 
     62 C          34.3727   30.2932    4.5114 C.2       10 UNK         0.4970 
     63 O          34.6628   30.3250    5.7073 O.2       10 UNK        -0.4916 
     64 N          34.6107   29.2450    3.7127 N.am      11 UNK        -0.4279 
     65 CA         35.2986   27.9933    4.0805 C.3       11 UNK         0.1003 
     66 C          36.8013   28.1740    4.4666 C.2       11 UNK         0.5709 
     67 N          37.4532   29.2679    4.0887 N.am      11 UNK        -0.7358 
     68 O          37.4026   27.2987    5.0853 O.2       11 UNK        -0.4999 
     69 C69        34.5011   27.1399    5.1110 C.3       12 UNK        -0.0954 
     70 S70        32.9164   26.5311    4.4447 S.3       12 UNK        -0.2268 
     71 C71        32.5868   25.1748    5.6133 C.3       12 UNK         0.0203 
     72 H72        25.4668   24.4338   -0.1687 H         1 UNK         0.0888 
     73 H73        26.5894   23.9010    1.0793 H         1 UNK         0.0888 
     74 H74        27.1847   24.4046   -0.5096 H         1 UNK         0.0888 
     75 H75        27.1486   20.7400   -1.0565 H         1 UNK         0.3017 
     76 H76        29.2480   21.0919   -0.8558 H         1 UNK         0.0873 
     77 H77        28.5758   22.0642    1.5131 H         1 UNK         0.0745 
     78 H78        29.0741   23.6022    0.8800 H         1 UNK         0.0745 
     79 H79        31.7500   20.8921    3.0133 H         1 UNK         0.0705 
     80 H80        30.0352   20.6428    2.8129 H         1 UNK         0.0705 
     81 H81        32.6114   23.1599    3.8021 H         1 UNK         0.1334 
     82 H82        29.9746   25.2719    6.4424 H         1 UNK         0.1417 
     83 H83        28.4631   22.0905    3.9949 H         1 UNK         0.1562 
     84 H84        27.7159   24.3775    6.8282 H         1 UNK         0.0748 
     85 H85        27.1948   22.9440    5.9887 H         1 UNK         0.0748 
     86 H86        27.8733   26.5918    5.9047 H         1 UNK         0.0940 
     87 H87        26.4931   27.2828    5.1098 H         1 UNK         0.0940 
     88 H88        28.9317   26.2250    3.5683 H         1 UNK         0.0703 
     89 H89        26.5069   27.6916    2.7069 H         1 UNK         0.3081 
     90 H90        25.8785   27.0795    0.3499 H         1 UNK         0.0719 
     91 H91        27.6826   29.5727    0.1997 H         1 UNK         0.0809 
     92 H92        26.0607   29.4653   -0.4799 H         1 UNK         0.0809 
     93 H93        26.2872   29.3857    1.2552 H         1 UNK         0.0809 
     94 H94        28.3803   27.0077   -1.1273 H         1 UNK         0.2990 
     95 H95        26.6993   26.0505   -4.0885 H         1 UNK         0.0690 
     96 H96        28.2837   27.5558   -5.2872 H         1 UNK         0.0788 
     97 H97        28.4961   28.5175   -3.8240 H         1 UNK         0.0788 
     98 H98        26.9300   28.4485   -4.6122 H         1 UNK         0.0788 
     99 H99        28.3802   24.7594   -3.5274 H         1 UNK         0.2993 
    100 H100       30.7677   24.3056   -3.5660 H         1 UNK         0.0949 
    101 H101       32.5356   25.9148   -2.8368 H         1 UNK         0.0767 
    102 H102       32.1098   25.6424   -1.1523 H         1 UNK         0.0767 
    103 H103       32.7835   24.3308   -2.1201 H         1 UNK         0.0767 
    104 H104       30.6240   23.7685   -0.7205 H         1 UNK         0.3013 
    105 H105       29.8782   27.3780    5.6263 H         1 UNK         0.3121 
    106 H106       31.5195   29.3746    4.8638 H         1 UNK         0.0774 
    107 H107       32.0713   29.6068    7.2873 H         1 UNK         0.0815 
    108 H108       30.5885   28.7667    7.7219 H         1 UNK         0.0815 
    109 H109       31.8699   27.9236    6.8553 H         1 UNK         0.0815 
    110 H110       28.2749   29.9443    6.0422 H         1 UNK         0.2987 
    111 H111       28.4455   32.6693    6.7992 H         1 UNK         0.0949 
    112 H112       25.9690   32.6323    6.4197 H         1 UNK         0.0806 
    113 H113       26.1054   31.0809    5.6043 H         1 UNK         0.0806 
    114 H114       26.4938   31.2207    7.3203 H         1 UNK         0.0806 
    115 H115       28.4891   31.2190    3.6015 H         1 UNK         0.3010 
    116 H116       28.7288   33.9478    2.4161 H         1 UNK         0.0829 
    117 H117       26.4402   33.2377    1.8754 H         1 UNK         0.0813 
    118 H118       27.4234   33.1699    0.4214 H         1 UNK         0.0813 
    119 H119       27.0146   31.6873    1.2740 H         1 UNK         0.0813 
    120 H120       29.5820   30.4631    2.2553 H         1 UNK         0.3038 
    121 H121       31.4227   30.9036    0.0209 H         1 UNK         0.0769 
    122 H122       31.8130   28.4752    0.2406 H         1 UNK         0.0811 
    123 H123       30.0952   28.8071    0.2220 H         1 UNK         0.0811 
    124 H124       30.9057   28.4236    1.7421 H         1 UNK         0.0811 
    125 H125       31.6872   31.5315    3.2982 H         1 UNK         0.3204 
    126 H126       33.2608   32.0892    4.7045 H         1 UNK         0.0748 
    127 H127       35.5156   32.7469    3.9586 H         1 UNK         0.0771 
    128 H128       35.2702   31.9758    2.4004 H         1 UNK         0.0771 
    129 H129       34.2971   33.3715    2.8594 H         1 UNK         0.0771 
    130 H130       34.3588   29.3474    2.7325 H         1 UNK         0.2980 
    131 H131       35.3408   27.4146    3.1573 H         1 UNK         0.0545 
    132 H132       38.4259   29.3702    4.3316 H         1 UNK         0.3459 
    133 H133       36.9842   29.9872    3.5631 H         1 UNK         0.3459 
    134 H134       34.3128   27.7005    6.0272 H         1 UNK         0.0616 
    135 H135       35.0816   26.2648    5.4065 H         1 UNK         0.0616 
    136 H136       32.4013   25.5855    6.6065 H         1 UNK         0.0634 
    137 H137       33.4748   24.5470    5.7026 H         1 UNK         0.0634 
@<TRIPOS>BOND
     1    1    2 1    
     2    1   72 1    
     3    1   73 1    
     4    1   74 1    
     5    2    3 2    
     6    2    4 am   BACKBONE|DICT|INTERRES
     7    4    5 1    
     8    4   75 1    
     9    5    6 1    
    10    5   35 1    
    11    5   76 1    
    12    6    7 1    
    13    6   77 1    
    14    6   78 1    
    15    7    8 1    
    16    8    9 1    
    17    8   79 1    
    18    8   80 1    
    19    9   10 ar   
    20    9   14 ar   
    21   10   11 ar   
    22   10   81 1    
    23   11   12 ar   
    24   11   71 1    
    25   12   13 ar   
    26   12   82 1    
    27   13   14 ar   
    28   13   15 1    
    29   14   83 1    
    30   15   16 1    
    31   15   84 1    
    32   15   85 1    
    33   16   17 1    
    34   17   18 1    
    35   17   86 1    
    36   17   87 1    
    37   18   19 1    
    38   18   37 1    
    39   18   88 1    
    40   19   20 am   BACKBONE|DICT|INTERRES
    41   19   89 1    
    42   20   21 2    
    43   20   22 1    
    44   22   23 1    
    45   22   24 1    
    46   22   90 1    
    47   23   91 1    
    48   23   92 1    
    49   23   93 1    
    50   24   25 am   BACKBONE|DICT|INTERRES
    51   24   94 1    
    52   25   26 2    
    53   25   27 1    
    54   27   28 1    
    55   27   29 1    
    56   27   95 1    
    57   28   96 1    
    58   28   97 1    
    59   28   98 1    
    60   29   30 am   BACKBONE|DICT|INTERRES
    61   29   99 1    
    62   30   31 2    
    63   30   32 1    
    64   32   33 1    
    65   32   34 1    
    66   32  100 1    
    67   33  101 1    
    68   33  102 1    
    69   33  103 1    
    70   34   35 am   BACKBONE|DICT|INTERRES
    71   34  104 1    
    72   35   36 2    
    73   37   38 2    
    74   37   39 am   BACKBONE|DICT|INTERRES
    75   39   40 1    
    76   39  105 1    
    77   40   41 1    
    78   40   42 1    
    79   40  106 1    
    80   41  107 1    
    81   41  108 1    
    82   41  109 1    
    83   42   43 2    
    84   42   44 am   BACKBONE|DICT|INTERRES
    85   44   45 1    
    86   44  110 1    
    87   45   46 1    
    88   45   47 1    
    89   45  111 1    
    90   46  112 1    
    91   46  113 1    
    92   46  114 1    
    93   47   48 2    
    94   47   49 am   BACKBONE|DICT|INTERRES
    95   49   50 1    
    96   49  115 1    
    97   50   51 1    
    98   50   52 1    
    99   50  116 1    
   100   51  117 1    
   101   51  118 1    
   102   51  119 1    
   103   52   53 2    
   104   52   54 am   BACKBONE|DICT|INTERRES
   105   54   55 1    
   106   54  120 1    
   107   55   56 1    
   108   55   57 1    
   109   55  121 1    
   110   56  122 1    
   111   56  123 1    
   112   56  124 1    
   113   57   58 2    
   114   57   59 am   BACKBONE|DICT|INTERRES
   115   59   60 1    
   116   59  125 1    
   117   60   61 1    
   118   60   62 1    
   119   60  126 1    
   120   61  127 1    
   121   61  128 1    
   122   61  129 1    
   123   62   63 2    
   124   62   64 am   BACKBONE|DICT|INTERRES
   125   64   65 1    
   126   64  130 1    
   127   65   66 1    
   128   65   69 1    
   129   65  131 1    
   130   66   67 am   BACKBONE|DICT|INTERRES
   131   66   68 2    
   132   67  132 1    
   133   67  133 1    
   134   69   70 1    
   135   69  134 1    
   136   69  135 1    
   137   70   71 1    
   138   71  136 1    
   139   71  137 1    
@<TRIPOS>SUBSTRUCTURE
     1 UNK         1 GROUP             0       ****    0 ROOT    
