@<TRIPOS>MOLECULE
3R136
137   139    1
SMALL
USER_CHARGES


@<TRIPOS>ATOM
      1 CA         31.0334   27.6837   -4.2597 C.3       0 UNK        -0.1979 
      2 C          30.1024   27.8463   -3.0675 C.2       0 UNK         0.4864 
      3 O          29.4110   28.8594   -2.9643 O.2       0 UNK        -0.5359 
      4 N          30.0716   26.8516   -2.1705 N.am      1 UNK        -0.4318 
      5 CA         29.2656   26.8493   -0.9427 C.3       1 UNK         0.0824 
      6 C6         29.9623   26.0329    0.1721 C.3       12 UNK        -0.0944 
      7 S7         30.0086   24.2230   -0.0997 S.3       12 UNK        -0.2672 
      8 C8         31.5627   23.7596    0.7337 C.3       12 UNK         0.0333 
      9 C9         31.5723   24.2037    2.1893 C.ar      12 UNK        -0.0807 
     10 C10        32.2607   25.3618    2.5621 C.ar      12 UNK        -0.0894 
     11 C11        32.2155   25.8218    3.8799 C.ar      12 UNK        -0.0804 
     12 C12        31.5045   25.0947    4.8373 C.ar      12 UNK        -0.0824 
     13 C13        30.8118   23.9358    4.4775 C.ar      12 UNK        -0.0762 
     14 C14        30.8604   23.4848    3.1542 C.ar      12 UNK        -0.0782 
     15 C15        29.9661   23.2076    5.5103 C.3       12 UNK         0.0230 
     16 S16        28.1833   23.4029    5.1852 S.3       12 UNK        -0.2608 
     17 C17        27.9709   25.2215    5.1351 C.3       12 UNK        -0.0989 
     18 CA         27.9049   25.7816    3.6827 C.3       5 UNK         0.0716 
     19 N          26.9254   25.0942    2.8297 N.am      5 UNK        -0.4135 
     20 C          25.5947   25.0681    3.0057 C.2       4 UNK         0.5031 
     21 O          25.0172   25.5994    3.9555 O.2       4 UNK        -0.5229 
     22 CA         24.7526   24.3515    1.9376 C.3       4 UNK         0.0329 
     23 CB         23.6810   25.2976    1.3658 C.3       4 UNK        -0.2001 
     24 N          25.5694   23.8667    0.8249 N.am      4 UNK        -0.4303 
     25 C          25.6928   22.5895    0.4376 C.2       3 UNK         0.5044 
     26 O          25.1908   21.6414    1.0435 O.2       3 UNK        -0.5152 
     27 CA         26.5177   22.3241   -0.8432 C.3       3 UNK         0.0319 
     28 CB         25.9789   21.1299   -1.6590 C.3       3 UNK        -0.2001 
     29 N          26.6783   23.5141   -1.6917 N.am      3 UNK        -0.4354 
     30 C          25.7102   24.2413   -2.2762 C.2       2 UNK         0.4964 
     31 O          24.5277   23.8995   -2.3165 O.2       2 UNK        -0.5047 
     32 CA         26.1233   25.6023   -2.8770 C.3       2 UNK         0.0288 
     33 CB         25.0384   26.6803   -2.6628 C.3       2 UNK        -0.2113 
     34 N          27.4288   26.0968   -2.4119 N.am      2 UNK        -0.4145 
     35 C          27.8017   26.4024   -1.1570 C.2       1 UNK         0.5006 
     36 O          27.0647   26.2859   -0.1724 O.2       1 UNK        -0.5103 
     37 C          27.7083   27.3162    3.6269 C.2       5 UNK         0.5055 
     38 O          27.8483   27.9964    4.6455 O.2       5 UNK        -0.5220 
     39 N          27.3467   27.8340    2.4405 N.am      6 UNK        -0.4450 
     40 CA         26.8963   29.2089    2.2012 C.3       6 UNK         0.0367 
     41 CB         26.0702   29.2384    0.9007 C.3       6 UNK        -0.1929 
     42 C          28.0250   30.2620    2.2060 C.2       6 UNK         0.5070 
     43 O          28.1831   30.9945    1.2285 O.2       6 UNK        -0.5237 
     44 N          28.7633   30.3391    3.3212 N.am      7 UNK        -0.4739 
     45 CA         29.7550   31.3661    3.6744 C.3       7 UNK         0.0276 
     46 CB         29.0488   32.7025    3.9833 C.3       7 UNK        -0.1927 
     47 C          30.9047   31.5251    2.6576 C.2       7 UNK         0.5013 
     48 O          31.3287   32.6462    2.3655 O.2       7 UNK        -0.5193 
     49 N          31.4015   30.3974    2.1350 N.am      8 UNK        -0.4253 
     50 CA         32.4834   30.3200    1.1515 C.3       8 UNK         0.0242 
     51 CB         32.3850   28.9743    0.4124 C.3       8 UNK        -0.2000 
     52 C          33.8705   30.5489    1.7850 C.2       8 UNK         0.4948 
     53 O          34.7045   29.6412    1.7868 O.2       8 UNK        -0.5275 
     54 N          34.0850   31.7591    2.3207 N.am      9 UNK        -0.4246 
     55 CA         35.3147   32.3287    2.8980 C.3       9 UNK         0.0261 
     56 CB         36.4322   32.4220    1.8409 C.3       9 UNK        -0.1959 
     57 C          35.8314   31.6454    4.1784 C.2       9 UNK         0.5033 
     58 O          36.1612   32.3403    5.1398 O.2       9 UNK        -0.5390 
     59 N          35.8829   30.3097    4.1838 N.am      10 UNK        -0.4215 
     60 CA         36.3087   29.4651    5.3056 C.3       10 UNK         0.0240 
     61 CB         36.8154   28.1266    4.7394 C.3       10 UNK        -0.1982 
     62 C          35.2038   29.2373    6.3583 C.2       10 UNK         0.4970 
     63 O          35.4134   28.4677    7.2968 O.2       10 UNK        -0.4916 
     64 N          34.0484   29.8792    6.1766 N.am      11 UNK        -0.4279 
     65 CA         32.8302   29.7466    6.9765 C.3       11 UNK         0.1003 
     66 C          32.0040   31.0586    6.9242 C.2       11 UNK         0.5709 
     67 N          31.0117   31.2033    7.7912 N.am      11 UNK        -0.7358 
     68 O          32.2444   31.9414    6.1011 O.2       11 UNK        -0.4999 
     69 C69        32.0062   28.4874    6.5788 C.3       12 UNK        -0.0954 
     70 S70        31.6773   28.3691    4.7832 S.3       12 UNK        -0.2268 
     71 C71        32.8997   27.1238    4.2605 C.3       12 UNK         0.0203 
     72 H72        31.5742   26.7380   -4.2295 H         1 UNK         0.0888 
     73 H73        30.4648   27.7202   -5.1886 H         1 UNK         0.0888 
     74 H74        31.7647   28.4914   -4.2759 H         1 UNK         0.0888 
     75 H75        30.6526   26.0355   -2.3077 H         1 UNK         0.3017 
     76 H76        29.2003   27.8792   -0.5841 H         1 UNK         0.0873 
     77 H77        30.9840   26.3944    0.2809 H         1 UNK         0.0745 
     78 H78        29.4850   26.2242    1.1316 H         1 UNK         0.0745 
     79 H79        32.4047   24.1932    0.1916 H         1 UNK         0.0705 
     80 H80        31.6875   22.6773    0.6785 H         1 UNK         0.0705 
     81 H81        32.8102   25.9201    1.8174 H         1 UNK         0.1334 
     82 H82        31.4579   25.4582    5.8547 H         1 UNK         0.1417 
     83 H83        30.3086   22.5996    2.8676 H         1 UNK         0.1562 
     84 H84        30.1858   23.5648    6.5177 H         1 UNK         0.0748 
     85 H85        30.2159   22.1458    5.4999 H         1 UNK         0.0748 
     86 H86        28.7817   25.6949    5.6915 H         1 UNK         0.0940 
     87 H87        27.0582   25.4679    5.6801 H         1 UNK         0.0940 
     88 H88        28.8779   25.5999    3.2288 H         1 UNK         0.0703 
     89 H89        27.3026   24.6147    2.0258 H         1 UNK         0.3081 
     90 H90        24.2502   23.5202    2.4360 H         1 UNK         0.0719 
     91 H91        23.0106   25.6555    2.1483 H         1 UNK         0.0809 
     92 H92        24.1295   26.1720    0.8923 H         1 UNK         0.0809 
     93 H93        23.0664   24.7934    0.6196 H         1 UNK         0.0809 
     94 H94        26.0221   24.5859    0.2692 H         1 UNK         0.2990 
     95 H95        27.5203   22.0627   -0.5014 H         1 UNK         0.0690 
     96 H96        24.9445   21.2827   -1.9680 H         1 UNK         0.0788 
     97 H97        26.0085   20.2104   -1.0731 H         1 UNK         0.0788 
     98 H98        26.5758   20.9599   -2.5550 H         1 UNK         0.0788 
     99 H99        27.6173   23.8861   -1.7283 H         1 UNK         0.2993 
    100 H100       26.2214   25.4373   -3.9511 H         1 UNK         0.0949 
    101 H101       24.8324   26.8433   -1.6043 H         1 UNK         0.0767 
    102 H102       25.3371   27.6349   -3.0961 H         1 UNK         0.0767 
    103 H103       24.0984   26.3929   -3.1355 H         1 UNK         0.0767 
    104 H104       28.1281   26.2113   -3.1322 H         1 UNK         0.3013 
    105 H105       27.2536   27.2035    1.6509 H         1 UNK         0.3121 
    106 H106       26.2203   29.4800    3.0151 H         1 UNK         0.0774 
    107 H107       25.6216   30.2205    0.7456 H         1 UNK         0.0815 
    108 H108       26.6843   29.0220    0.0263 H         1 UNK         0.0815 
    109 H109       25.2563   28.5137    0.9268 H         1 UNK         0.0815 
    110 H110       28.5687   29.6415    4.0374 H         1 UNK         0.2987 
    111 H111       30.2178   31.0242    4.5988 H         1 UNK         0.0949 
    112 H112       28.2710   32.5761    4.7362 H         1 UNK         0.0806 
    113 H113       29.7558   33.4367    4.3723 H         1 UNK         0.0806 
    114 H114       28.5892   33.1310    3.0920 H         1 UNK         0.0806 
    115 H115       31.0274   29.5209    2.4697 H         1 UNK         0.3010 
    116 H116       32.3366   31.1098    0.4114 H         1 UNK         0.0829 
    117 H117       31.4321   28.8804   -0.1074 H         1 UNK         0.0813 
    118 H118       33.1710   28.8792   -0.3380 H         1 UNK         0.0813 
    119 H119       32.4844   28.1344    1.0987 H         1 UNK         0.0813 
    120 H120       33.2805   32.3820    2.3261 H         1 UNK         0.3038 
    121 H121       35.0517   33.3493    3.1811 H         1 UNK         0.0769 
    122 H122       36.1090   32.9965    0.9728 H         1 UNK         0.0811 
    123 H123       37.3132   32.9200    2.2482 H         1 UNK         0.0811 
    124 H124       36.7490   31.4385    1.4923 H         1 UNK         0.0811 
    125 H125       35.5622   29.8381    3.3372 H         1 UNK         0.3204 
    126 H126       37.1400   29.9550    5.8166 H         1 UNK         0.0748 
    127 H127       37.6368   28.2795    4.0391 H         1 UNK         0.0771 
    128 H128       37.1873   27.4763    5.5324 H         1 UNK         0.0771 
    129 H129       36.0263   27.5859    4.2155 H         1 UNK         0.0771 
    130 H130       33.9708   30.5439    5.4200 H         1 UNK         0.2980 
    131 H131       33.1358   29.6376    8.0187 H         1 UNK         0.0545 
    132 H132       30.8017   30.4889    8.4705 H         1 UNK         0.3459 
    133 H133       30.4656   32.0498    7.7705 H         1 UNK         0.3459 
    134 H134       32.5282   27.5903    6.9130 H         1 UNK         0.0616 
    135 H135       31.0485   28.4680    7.1012 H         1 UNK         0.0616 
    136 H136       33.6325   26.9347    5.0451 H         1 UNK         0.0634 
    137 H137       33.4593   27.5290    3.4161 H         1 UNK         0.0634 
@<TRIPOS>BOND
     1    1    2 1    
     2    1   72 1    
     3    1   73 1    
     4    1   74 1    
     5    2    3 2    
     6    2    4 am   BACKBONE|DICT|INTERRES
     7    4    5 1    
     8    4   75 1    
     9    5    6 1    
    10    5   35 1    
    11    5   76 1    
    12    6    7 1    
    13    6   77 1    
    14    6   78 1    
    15    7    8 1    
    16    8    9 1    
    17    8   79 1    
    18    8   80 1    
    19    9   10 ar   
    20    9   14 ar   
    21   10   11 ar   
    22   10   81 1    
    23   11   12 ar   
    24   11   71 1    
    25   12   13 ar   
    26   12   82 1    
    27   13   14 ar   
    28   13   15 1    
    29   14   83 1    
    30   15   16 1    
    31   15   84 1    
    32   15   85 1    
    33   16   17 1    
    34   17   18 1    
    35   17   86 1    
    36   17   87 1    
    37   18   19 1    
    38   18   37 1    
    39   18   88 1    
    40   19   20 am   BACKBONE|DICT|INTERRES
    41   19   89 1    
    42   20   21 2    
    43   20   22 1    
    44   22   23 1    
    45   22   24 1    
    46   22   90 1    
    47   23   91 1    
    48   23   92 1    
    49   23   93 1    
    50   24   25 am   BACKBONE|DICT|INTERRES
    51   24   94 1    
    52   25   26 2    
    53   25   27 1    
    54   27   28 1    
    55   27   29 1    
    56   27   95 1    
    57   28   96 1    
    58   28   97 1    
    59   28   98 1    
    60   29   30 am   BACKBONE|DICT|INTERRES
    61   29   99 1    
    62   30   31 2    
    63   30   32 1    
    64   32   33 1    
    65   32   34 1    
    66   32  100 1    
    67   33  101 1    
    68   33  102 1    
    69   33  103 1    
    70   34   35 am   BACKBONE|DICT|INTERRES
    71   34  104 1    
    72   35   36 2    
    73   37   38 2    
    74   37   39 am   BACKBONE|DICT|INTERRES
    75   39   40 1    
    76   39  105 1    
    77   40   41 1    
    78   40   42 1    
    79   40  106 1    
    80   41  107 1    
    81   41  108 1    
    82   41  109 1    
    83   42   43 2    
    84   42   44 am   BACKBONE|DICT|INTERRES
    85   44   45 1    
    86   44  110 1    
    87   45   46 1    
    88   45   47 1    
    89   45  111 1    
    90   46  112 1    
    91   46  113 1    
    92   46  114 1    
    93   47   48 2    
    94   47   49 am   BACKBONE|DICT|INTERRES
    95   49   50 1    
    96   49  115 1    
    97   50   51 1    
    98   50   52 1    
    99   50  116 1    
   100   51  117 1    
   101   51  118 1    
   102   51  119 1    
   103   52   53 2    
   104   52   54 am   BACKBONE|DICT|INTERRES
   105   54   55 1    
   106   54  120 1    
   107   55   56 1    
   108   55   57 1    
   109   55  121 1    
   110   56  122 1    
   111   56  123 1    
   112   56  124 1    
   113   57   58 2    
   114   57   59 am   BACKBONE|DICT|INTERRES
   115   59   60 1    
   116   59  125 1    
   117   60   61 1    
   118   60   62 1    
   119   60  126 1    
   120   61  127 1    
   121   61  128 1    
   122   61  129 1    
   123   62   63 2    
   124   62   64 am   BACKBONE|DICT|INTERRES
   125   64   65 1    
   126   64  130 1    
   127   65   66 1    
   128   65   69 1    
   129   65  131 1    
   130   66   67 am   BACKBONE|DICT|INTERRES
   131   66   68 2    
   132   67  132 1    
   133   67  133 1    
   134   69   70 1    
   135   69  134 1    
   136   69  135 1    
   137   70   71 1    
   138   71  136 1    
   139   71  137 1    
@<TRIPOS>SUBSTRUCTURE
     1 UNK         1 GROUP             0       ****    0 ROOT    
