@<TRIPOS>MOLECULE
3R136
137   139    1
SMALL
USER_CHARGES


@<TRIPOS>ATOM
      1 CA         27.8792   21.4867    0.1386 C.3       0 UNK        -0.1979 
      2 C          28.6760   22.5141   -0.6488 C.2       0 UNK         0.4864 
      3 O          28.4607   22.6613   -1.8534 O.2       0 UNK        -0.5359 
      4 N          29.5977   23.2275    0.0129 N.am      1 UNK        -0.4318 
      5 CA         30.4586   24.2423   -0.6053 C.3       1 UNK         0.0824 
      6 C6         31.6424   24.6569    0.2990 C.3       12 UNK        -0.0944 
      7 S7         32.7694   23.2372    0.5354 S.3       12 UNK        -0.2672 
      8 C8         33.4997   23.5411    2.1796 C.3       12 UNK         0.0333 
      9 C9         32.4898   23.6613    3.3182 C.ar      12 UNK        -0.0807 
     10 C10        32.7456   24.5566    4.3609 C.ar      12 UNK        -0.0894 
     11 C11        31.8436   24.6953    5.4186 C.ar      12 UNK        -0.0804 
     12 C12        30.6722   23.9351    5.4302 C.ar      12 UNK        -0.0824 
     13 C13        30.3946   23.0476    4.3865 C.ar      12 UNK        -0.0762 
     14 C14        31.3190   22.8939    3.3496 C.ar      12 UNK        -0.0782 
     15 C15        29.0866   22.2718    4.3628 C.3       12 UNK         0.0230 
     16 S16        27.8493   23.0845    3.2978 S.3       12 UNK        -0.2608 
     17 C17        27.4768   24.6018    4.2381 C.3       12 UNK        -0.0989 
     18 CA         28.0004   25.8827    3.5272 C.3       5 UNK         0.0716 
     19 N          27.3105   26.1663    2.2545 N.am      5 UNK        -0.4135 
     20 C          26.0245   26.5435    2.1319 C.2       4 UNK         0.5031 
     21 O          25.2191   26.5790    3.0630 O.2       4 UNK        -0.5229 
     22 CA         25.5485   26.9913    0.7472 C.3       4 UNK         0.0329 
     23 CB         26.1386   28.3681    0.3958 C.3       4 UNK        -0.2001 
     24 N          25.9145   26.0342   -0.2926 N.am      4 UNK        -0.4303 
     25 C          25.0448   25.3795   -1.0764 C.2       3 UNK         0.5044 
     26 O          23.8239   25.4025   -0.9092 O.2       3 UNK        -0.5152 
     27 CA         25.6310   24.5771   -2.2610 C.3       3 UNK         0.0319 
     28 CB         24.6710   24.5053   -3.4674 C.3       3 UNK        -0.2001 
     29 N          26.9608   25.0446   -2.6756 N.am      3 UNK        -0.4354 
     30 C          27.2983   26.2774   -3.0956 C.2       2 UNK         0.4964 
     31 O          26.4760   27.1492   -3.3803 O.2       2 UNK        -0.5047 
     32 CA         28.8043   26.6176   -3.1586 C.3       2 UNK         0.0288 
     33 CB         29.0744   28.0828   -2.7595 C.3       2 UNK        -0.2113 
     34 N          29.6558   25.7034   -2.3813 N.am      2 UNK        -0.4145 
     35 C          29.6103   25.4428   -1.0639 C.2       1 UNK         0.5006 
     36 O          28.8816   26.0260   -0.2524 O.2       1 UNK        -0.5103 
     37 C          27.9638   27.1283    4.4476 C.2       5 UNK         0.5055 
     38 O          27.4892   27.0515    5.5835 O.2       5 UNK        -0.5220 
     39 N          28.4112   28.2684    3.9054 N.am      6 UNK        -0.4450 
     40 CA         28.3412   29.5890    4.5301 C.3       6 UNK         0.0367 
     41 CB         27.4145   30.4781    3.6823 C.3       6 UNK        -0.1929 
     42 C          29.7354   30.2177    4.6236 C.2       6 UNK         0.5070 
     43 O          30.6509   29.8119    3.8999 O.2       6 UNK        -0.5237 
     44 N          29.8625   31.2379    5.4825 N.am      7 UNK        -0.4739 
     45 CA         31.0993   31.9906    5.7196 C.3       7 UNK         0.0276 
     46 CB         30.8843   33.0079    6.8506 C.3       7 UNK        -0.1927 
     47 C          31.6564   32.6743    4.4628 C.2       7 UNK         0.5013 
     48 O          32.8588   32.5916    4.2109 O.2       7 UNK        -0.5193 
     49 N          30.7593   33.2884    3.6801 N.am      8 UNK        -0.4253 
     50 CA         31.0727   33.9184    2.3959 C.3       8 UNK         0.0242 
     51 CB         29.9036   34.8273    1.9819 C.3       8 UNK        -0.2000 
     52 C          31.3853   32.9044    1.2805 C.2       8 UNK         0.4948 
     53 O          32.0784   33.2623    0.3274 O.2       8 UNK        -0.5275 
     54 N          30.8666   31.6744    1.4067 N.am      9 UNK        -0.4246 
     55 CA         31.1088   30.5794    0.4699 C.3       9 UNK         0.0261 
     56 CB         29.9650   29.5546    0.5388 C.3       9 UNK        -0.1959 
     57 C          32.4625   29.9055    0.7250 C.2       9 UNK         0.5033 
     58 O          33.2270   29.7288   -0.2253 O.2       9 UNK        -0.5390 
     59 N          32.7337   29.5362    1.9855 N.am      10 UNK        -0.4215 
     60 CA         33.9490   28.8105    2.3620 C.3       10 UNK         0.0240 
     61 CB         33.8273   27.3291    1.9535 C.3       10 UNK        -0.1982 
     62 C          34.3269   28.9085    3.8463 C.2       10 UNK         0.4970 
     63 O          35.5182   28.8061    4.1428 O.2       10 UNK        -0.4916 
     64 N          33.3510   29.0380    4.7572 N.am      11 UNK        -0.4279 
     65 CA         33.5864   28.8636    6.2056 C.3       11 UNK         0.1003 
     66 C          34.3671   30.0122    6.9098 C.2       11 UNK         0.5709 
     67 N          34.5658   31.1691    6.2896 N.am      11 UNK        -0.7358 
     68 O          34.8107   29.8438    8.0431 O.2       11 UNK        -0.4999 
     69 C69        32.3033   28.4812    6.9989 C.3       12 UNK        -0.0954 
     70 S70        31.2539   27.2521    6.1588 S.3       12 UNK        -0.2268 
     71 C71        32.1162   25.6993    6.5244 C.3       12 UNK         0.0203 
     72 H72        28.4147   21.1630    1.0307 H         1 UNK         0.0888 
     73 H73        26.9208   21.9067    0.4425 H         1 UNK         0.0888 
     74 H74        27.6883   20.6057   -0.4736 H         1 UNK         0.0888 
     75 H75        29.7023   23.1085    1.0094 H         1 UNK         0.3017 
     76 H76        30.8881   23.7828   -1.4991 H         1 UNK         0.0873 
     77 H77        31.2832   25.0320    1.2589 H         1 UNK         0.0745 
     78 H78        32.2149   25.4669   -0.1567 H         1 UNK         0.0745 
     79 H79        34.1818   22.7221    2.4106 H         1 UNK         0.0705 
     80 H80        34.1127   24.4399    2.1156 H         1 UNK         0.0705 
     81 H81        33.6457   25.1563    4.3473 H         1 UNK         0.1334 
     82 H82        29.9673   24.0574    6.2409 H         1 UNK         0.1417 
     83 H83        31.1135   22.1899    2.5556 H         1 UNK         0.1562 
     84 H84        28.6851   22.1555    5.3708 H         1 UNK         0.0748 
     85 H85        29.2653   21.2623    3.9894 H         1 UNK         0.0748 
     86 H86        27.9035   24.5093    5.2369 H         1 UNK         0.0940 
     87 H87        26.3986   24.6550    4.3939 H         1 UNK         0.0940 
     88 H88        29.0528   25.7225    3.2852 H         1 UNK         0.0703 
     89 H89        27.8944   26.1518    1.4231 H         1 UNK         0.3081 
     90 H90        24.4631   27.1014    0.7979 H         1 UNK         0.0719 
     91 H91        25.8863   29.1094    1.1551 H         1 UNK         0.0809 
     92 H92        27.2249   28.3340    0.3169 H         1 UNK         0.0809 
     93 H93        25.7493   28.7315   -0.5556 H         1 UNK         0.0809 
     94 H94        26.9065   25.9382   -0.4827 H         1 UNK         0.2990 
     95 H95        25.7708   23.5602   -1.8920 H         1 UNK         0.0690 
     96 H96        25.1070   23.9346   -4.2873 H         1 UNK         0.0788 
     97 H97        24.4183   25.4965   -3.8448 H         1 UNK         0.0788 
     98 H98        23.7359   24.0144   -3.1951 H         1 UNK         0.0788 
     99 H99        27.7061   24.3761   -2.4987 H         1 UNK         0.2993 
    100 H100       29.0989   26.4960   -4.2021 H         1 UNK         0.0949 
    101 H101       28.6320   28.3182   -1.7921 H         1 UNK         0.0767 
    102 H102       30.1419   28.2978   -2.7093 H         1 UNK         0.0767 
    103 H103       28.6391   28.7707   -3.4853 H         1 UNK         0.0767 
    104 H104       30.2750   25.1343   -2.9428 H         1 UNK         0.3013 
    105 H105       28.8714   28.2332    3.0084 H         1 UNK         0.3121 
    106 H106       27.9375   29.5151    5.5420 H         1 UNK         0.0774 
    107 H107       27.7892   30.6054    2.6659 H         1 UNK         0.0815 
    108 H108       26.4143   30.0493    3.6158 H         1 UNK         0.0815 
    109 H109       27.3076   31.4719    4.1189 H         1 UNK         0.0815 
    110 H110       29.0588   31.5110    6.0307 H         1 UNK         0.2987 
    111 H111       31.8527   31.2808    6.0504 H         1 UNK         0.0949 
    112 H112       30.6006   32.5131    7.7798 H         1 UNK         0.0806 
    113 H113       31.8002   33.5659    7.0514 H         1 UNK         0.0806 
    114 H114       30.1076   33.7329    6.6046 H         1 UNK         0.0806 
    115 H115       29.7944   33.3038    3.9772 H         1 UNK         0.3010 
    116 H116       31.9604   34.5408    2.5295 H         1 UNK         0.0829 
    117 H117       28.9807   34.2627    1.8429 H         1 UNK         0.0813 
    118 H118       30.1192   35.3351    1.0406 H         1 UNK         0.0813 
    119 H119       29.7171   35.5998    2.7283 H         1 UNK         0.0813 
    120 H120       30.3563   31.4513    2.2483 H         1 UNK         0.3038 
    121 H121       31.1262   30.9830   -0.5452 H         1 UNK         0.0769 
    122 H122       29.0231   29.9948    0.2122 H         1 UNK         0.0811 
    123 H123       29.8241   29.1592    1.5418 H         1 UNK         0.0811 
    124 H124       30.1730   28.7019   -0.1078 H         1 UNK         0.0811 
    125 H125       32.0442   29.7200    2.7116 H         1 UNK         0.3204 
    126 H126       34.7865   29.2478    1.8135 H         1 UNK         0.0748 
    127 H127       32.9550   26.8594    2.4097 H         1 UNK         0.0771 
    128 H128       33.7420   27.2157    0.8730 H         1 UNK         0.0771 
    129 H129       34.7078   26.7649    2.2635 H         1 UNK         0.0771 
    130 H130       32.3810   29.1185    4.4730 H         1 UNK         0.2980 
    131 H131       34.2488   28.0003    6.2926 H         1 UNK         0.0545 
    132 H132       34.1837   31.3447    5.3695 H         1 UNK         0.3459 
    133 H133       35.0848   31.8926    6.7604 H         1 UNK         0.3459 
    134 H134       31.6828   29.3579    7.1821 H         1 UNK         0.0616 
    135 H135       32.5669   28.0944    7.9850 H         1 UNK         0.0616 
    136 H136       33.1888   25.8745    6.6150 H         1 UNK         0.0634 
    137 H137       31.7795   25.3128    7.4874 H         1 UNK         0.0634 
@<TRIPOS>BOND
     1    1    2 1    
     2    1   72 1    
     3    1   73 1    
     4    1   74 1    
     5    2    3 2    
     6    2    4 am   BACKBONE|DICT|INTERRES
     7    4    5 1    
     8    4   75 1    
     9    5    6 1    
    10    5   35 1    
    11    5   76 1    
    12    6    7 1    
    13    6   77 1    
    14    6   78 1    
    15    7    8 1    
    16    8    9 1    
    17    8   79 1    
    18    8   80 1    
    19    9   10 ar   
    20    9   14 ar   
    21   10   11 ar   
    22   10   81 1    
    23   11   12 ar   
    24   11   71 1    
    25   12   13 ar   
    26   12   82 1    
    27   13   14 ar   
    28   13   15 1    
    29   14   83 1    
    30   15   16 1    
    31   15   84 1    
    32   15   85 1    
    33   16   17 1    
    34   17   18 1    
    35   17   86 1    
    36   17   87 1    
    37   18   19 1    
    38   18   37 1    
    39   18   88 1    
    40   19   20 am   BACKBONE|DICT|INTERRES
    41   19   89 1    
    42   20   21 2    
    43   20   22 1    
    44   22   23 1    
    45   22   24 1    
    46   22   90 1    
    47   23   91 1    
    48   23   92 1    
    49   23   93 1    
    50   24   25 am   BACKBONE|DICT|INTERRES
    51   24   94 1    
    52   25   26 2    
    53   25   27 1    
    54   27   28 1    
    55   27   29 1    
    56   27   95 1    
    57   28   96 1    
    58   28   97 1    
    59   28   98 1    
    60   29   30 am   BACKBONE|DICT|INTERRES
    61   29   99 1    
    62   30   31 2    
    63   30   32 1    
    64   32   33 1    
    65   32   34 1    
    66   32  100 1    
    67   33  101 1    
    68   33  102 1    
    69   33  103 1    
    70   34   35 am   BACKBONE|DICT|INTERRES
    71   34  104 1    
    72   35   36 2    
    73   37   38 2    
    74   37   39 am   BACKBONE|DICT|INTERRES
    75   39   40 1    
    76   39  105 1    
    77   40   41 1    
    78   40   42 1    
    79   40  106 1    
    80   41  107 1    
    81   41  108 1    
    82   41  109 1    
    83   42   43 2    
    84   42   44 am   BACKBONE|DICT|INTERRES
    85   44   45 1    
    86   44  110 1    
    87   45   46 1    
    88   45   47 1    
    89   45  111 1    
    90   46  112 1    
    91   46  113 1    
    92   46  114 1    
    93   47   48 2    
    94   47   49 am   BACKBONE|DICT|INTERRES
    95   49   50 1    
    96   49  115 1    
    97   50   51 1    
    98   50   52 1    
    99   50  116 1    
   100   51  117 1    
   101   51  118 1    
   102   51  119 1    
   103   52   53 2    
   104   52   54 am   BACKBONE|DICT|INTERRES
   105   54   55 1    
   106   54  120 1    
   107   55   56 1    
   108   55   57 1    
   109   55  121 1    
   110   56  122 1    
   111   56  123 1    
   112   56  124 1    
   113   57   58 2    
   114   57   59 am   BACKBONE|DICT|INTERRES
   115   59   60 1    
   116   59  125 1    
   117   60   61 1    
   118   60   62 1    
   119   60  126 1    
   120   61  127 1    
   121   61  128 1    
   122   61  129 1    
   123   62   63 2    
   124   62   64 am   BACKBONE|DICT|INTERRES
   125   64   65 1    
   126   64  130 1    
   127   65   66 1    
   128   65   69 1    
   129   65  131 1    
   130   66   67 am   BACKBONE|DICT|INTERRES
   131   66   68 2    
   132   67  132 1    
   133   67  133 1    
   134   69   70 1    
   135   69  134 1    
   136   69  135 1    
   137   70   71 1    
   138   71  136 1    
   139   71  137 1    
@<TRIPOS>SUBSTRUCTURE
     1 UNK         1 GROUP             0       ****    0 ROOT    
