@<TRIPOS>MOLECULE
3R136
137   139    1
SMALL
USER_CHARGES


@<TRIPOS>ATOM
      1 CA         28.5007   25.7726    3.5281 C.3       0 UNK        -0.1979 
      2 C          27.9497   24.3699    3.3299 C.2       0 UNK         0.4864 
      3 O          26.8985   24.0511    3.8861 O.2       0 UNK        -0.5359 
      4 N          28.6558   23.5279    2.5618 N.am      1 UNK        -0.4318 
      5 CA         28.3133   22.1168    2.3482 C.3       1 UNK         0.0824 
      6 C6         29.4647   21.3212    1.6869 C.3       12 UNK        -0.0944 
      7 S7         30.9010   21.1581    2.7984 S.3       12 UNK        -0.2672 
      8 C8         32.2364   21.9215    1.8262 C.3       12 UNK         0.0333 
      9 C9         32.1283   23.4387    1.7881 C.ar      12 UNK        -0.0807 
     10 C10        32.3680   24.1854    2.9451 C.ar      12 UNK        -0.0894 
     11 C11        32.3224   25.5823    2.9145 C.ar      12 UNK        -0.0804 
     12 C12        32.0166   26.2322    1.7147 C.ar      12 UNK        -0.0824 
     13 C13        31.7658   25.4959    0.5511 C.ar      12 UNK        -0.0762 
     14 C14        31.8283   24.0994    0.5933 C.ar      12 UNK        -0.0782 
     15 C15        31.4439   26.2092   -0.7571 C.3       12 UNK         0.0230 
     16 S16        29.7736   25.8166   -1.3743 S.3       12 UNK        -0.2608 
     17 C17        28.7233   26.5026   -0.0530 C.3       12 UNK        -0.0989 
     18 CA         28.0433   27.8330   -0.4510 C.3       5 UNK         0.0716 
     19 N          27.1034   27.6670   -1.5632 N.am      5 UNK        -0.4135 
     20 C          26.5261   28.6837   -2.2202 C.2       4 UNK         0.5031 
     21 O          26.7511   29.8686   -1.9647 O.2       4 UNK        -0.5229 
     22 CA         25.5639   28.3582   -3.3791 C.3       4 UNK         0.0329 
     23 CB         26.1277   28.8815   -4.7120 C.3       4 UNK        -0.2001 
     24 N          25.2556   26.9356   -3.5330 N.am      4 UNK        -0.4303 
     25 C          24.3956   26.2397   -2.7789 C.2       3 UNK         0.5044 
     26 O          23.7796   26.7158   -1.8244 O.2       3 UNK        -0.5152 
     27 CA         24.1592   24.7656   -3.1659 C.3       3 UNK         0.0319 
     28 CB         24.9170   24.3101   -4.4359 C.3       3 UNK        -0.2001 
     29 N          24.4315   23.8382   -2.0632 N.am      3 UNK        -0.4354 
     30 C          25.5795   23.7051   -1.3839 C.2       2 UNK         0.4964 
     31 O          26.5677   24.4270   -1.5348 O.2       2 UNK        -0.5047 
     32 CA         25.6408   22.5181   -0.4157 C.3       2 UNK         0.0288 
     33 CB         25.7163   21.1925   -1.2067 C.3       2 UNK        -0.2113 
     34 N          26.8010   22.6445    0.4676 N.am      2 UNK        -0.4145 
     35 C          26.9950   21.9136    1.5741 C.2       1 UNK         0.5006 
     36 O          26.1823   21.0859    1.9925 O.2       1 UNK        -0.5103 
     37 C          27.3719   28.4521    0.7912 C.2       5 UNK         0.5055 
     38 O          26.1906   28.2123    1.0524 O.2       5 UNK        -0.5220 
     39 N          28.1823   29.1687    1.5727 N.am      6 UNK        -0.4450 
     40 CA         27.8937   29.6225    2.9268 C.3       6 UNK         0.0367 
     41 CB         27.6425   31.1396    2.9190 C.3       6 UNK        -0.1929 
     42 C          29.1221   29.2777    3.7756 C.2       6 UNK         0.5070 
     43 O          30.2149   29.1231    3.2245 O.2       6 UNK        -0.5237 
     44 N          28.9304   29.1545    5.0937 N.am      7 UNK        -0.4739 
     45 CA         30.0179   28.8854    6.0394 C.3       7 UNK         0.0276 
     46 CB         29.4355   28.3821    7.3693 C.3       7 UNK        -0.1927 
     47 C          30.9170   30.1120    6.2661 C.2       7 UNK         0.5013 
     48 O          32.1256   29.9536    6.4325 O.2       7 UNK        -0.5193 
     49 N          30.3112   31.3079    6.2642 N.am      8 UNK        -0.4253 
     50 CA         30.9908   32.5917    6.4378 C.3       8 UNK         0.0242 
     51 CB         29.9399   33.7058    6.5694 C.3       8 UNK        -0.2000 
     52 C          31.9480   32.8927    5.2744 C.2       8 UNK         0.4948 
     53 O          31.6009   32.6364    4.1189 O.2       8 UNK        -0.5275 
     54 N          33.1276   33.4352    5.6053 N.am      9 UNK        -0.4246 
     55 CA         34.2394   33.8331    4.7272 C.3       9 UNK         0.0261 
     56 CB         33.8139   34.9393    3.7413 C.3       9 UNK        -0.1959 
     57 C          34.9356   32.6729    3.9901 C.2       9 UNK         0.5033 
     58 O          36.1664   32.6508    3.9438 O.2       9 UNK        -0.5390 
     59 N          34.1578   31.7391    3.4290 N.am      10 UNK        -0.4215 
     60 CA         34.6420   30.5482    2.7287 C.3       10 UNK         0.0240 
     61 CB         33.4839   29.9015    1.9545 C.3       10 UNK        -0.1982 
     62 C          35.3001   29.5259    3.6699 C.2       10 UNK         0.4970 
     63 O          36.2885   28.9050    3.2760 O.2       10 UNK        -0.4916 
     64 N          34.7543   29.3830    4.8832 N.am      11 UNK        -0.4279 
     65 CA         35.2704   28.5265    5.9576 C.3       11 UNK         0.1003 
     66 C          35.4936   29.3500    7.2573 C.2       11 UNK         0.5709 
     67 N          36.0180   28.7272    8.3049 N.am      11 UNK        -0.7358 
     68 O          35.2257   30.5492    7.3304 O.2       11 UNK        -0.4999 
     69 C69        34.3640   27.2834    6.1866 C.3       12 UNK        -0.0954 
     70 S70        34.3153   26.1727    4.7402 S.3       12 UNK        -0.2268 
     71 C71        32.5971   26.3829    4.1799 C.3       12 UNK         0.0203 
     72 H72        28.5988   25.9908    4.5913 H         1 UNK         0.0888 
     73 H73        27.8190   26.5017    3.0934 H         1 UNK         0.0888 
     74 H74        29.4805   25.8972    3.0716 H         1 UNK         0.0888 
     75 H75        29.5328   23.8296    2.1602 H         1 UNK         0.3017 
     76 H76        28.1464   21.6840    3.3376 H         1 UNK         0.0873 
     77 H77        29.1418   20.3076    1.4396 H         1 UNK         0.0745 
     78 H78        29.7623   21.7819    0.7432 H         1 UNK         0.0745 
     79 H79        33.1929   21.6482    2.2742 H         1 UNK         0.0705 
     80 H80        32.2422   21.4993    0.8200 H         1 UNK         0.0705 
     81 H81        32.6066   23.6777    3.8701 H         1 UNK         0.1334 
     82 H82        31.9698   27.3123    1.6894 H         1 UNK         0.1417 
     83 H83        31.6466   23.5310   -0.3091 H         1 UNK         0.1562 
     84 H84        32.1756   25.9151   -1.5107 H         1 UNK         0.0748 
     85 H85        31.5367   27.2909   -0.6467 H         1 UNK         0.0748 
     86 H86        29.3361   26.6436    0.8364 H         1 UNK         0.0940 
     87 H87        27.9759   25.7567    0.2210 H         1 UNK         0.0940 
     88 H88        28.8191   28.5246   -0.7880 H         1 UNK         0.0703 
     89 H89        26.8629   26.7147   -1.8076 H         1 UNK         0.3081 
     90 H90        24.6317   28.8895   -3.1752 H         1 UNK         0.0719 
     91 H91        27.0674   28.3927   -4.9724 H         1 UNK         0.0809 
     92 H92        25.4261   28.7216   -5.5311 H         1 UNK         0.0809 
     93 H93        26.3220   29.9539   -4.6626 H         1 UNK         0.0809 
     94 H94        25.7283   26.4501   -4.2819 H         1 UNK         0.2990 
     95 H95        23.0921   24.6830   -3.3775 H         1 UNK         0.0690 
     96 H96        24.6611   23.2819   -4.6923 H         1 UNK         0.0788 
     97 H97        25.9997   24.3528   -4.3087 H         1 UNK         0.0788 
     98 H98        24.6536   24.9225   -5.2995 H         1 UNK         0.0788 
     99 H99        23.6714   23.2135   -1.8325 H         1 UNK         0.2993 
    100 H100       24.7347   22.5328    0.1941 H         1 UNK         0.0949 
    101 H101       24.8739   21.0864   -1.8912 H         1 UNK         0.0767 
    102 H102       26.6283   21.1355   -1.8024 H         1 UNK         0.0767 
    103 H103       25.6950   20.3248   -0.5477 H         1 UNK         0.0767 
    104 H104       27.4801   23.3373    0.1785 H         1 UNK         0.3013 
    105 H105       29.1639   29.2452    1.3337 H         1 UNK         0.3121 
    106 H106       27.0235   29.1011    3.3317 H         1 UNK         0.0774 
    107 H107       26.8065   31.3978    2.2688 H         1 UNK         0.0815 
    108 H108       28.5182   31.6918    2.5740 H         1 UNK         0.0815 
    109 H109       27.4006   31.5029    3.9183 H         1 UNK         0.0815 
    110 H110       28.0035   29.2781    5.4768 H         1 UNK         0.2987 
    111 H111       30.6456   28.0931    5.6278 H         1 UNK         0.0949 
    112 H112       30.2313   28.1569    8.0809 H         1 UNK         0.0806 
    113 H113       28.8604   27.4667    7.2290 H         1 UNK         0.0806 
    114 H114       28.7830   29.1224    7.8338 H         1 UNK         0.0806 
    115 H115       29.3212   31.3389    6.0756 H         1 UNK         0.3010 
    116 H116       31.5641   32.5403    7.3662 H         1 UNK         0.0829 
    117 H117       29.2777   33.5310    7.4176 H         1 UNK         0.0813 
    118 H118       30.4154   34.6751    6.7259 H         1 UNK         0.0813 
    119 H119       29.3243   33.7870    5.6722 H         1 UNK         0.0813 
    120 H120       33.3130   33.5648    6.5909 H         1 UNK         0.3038 
    121 H121       34.9890   34.2658    5.3920 H         1 UNK         0.0769 
    122 H122       33.0689   34.5881    3.0268 H         1 UNK         0.0811 
    123 H123       34.6692   35.2958    3.1658 H         1 UNK         0.0811 
    124 H124       33.3961   35.7985    4.2659 H         1 UNK         0.0811 
    125 H125       33.1499   31.8643    3.5145 H         1 UNK         0.3204 
    126 H126       35.3966   30.8676    2.0068 H         1 UNK         0.0748 
    127 H127       33.0502   30.5938    1.2328 H         1 UNK         0.0771 
    128 H128       33.8248   29.0249    1.4020 H         1 UNK         0.0771 
    129 H129       32.6902   29.5776    2.6270 H         1 UNK         0.0771 
    130 H130       33.9625   29.9545    5.1520 H         1 UNK         0.2980 
    131 H131       36.2646   28.1712    5.6811 H         1 UNK         0.0545 
    132 H132       36.1772   29.2491    9.1523 H         1 UNK         0.3459 
    133 H133       36.2631   27.7503    8.2647 H         1 UNK         0.3459 
    134 H134       34.7292   26.6875    7.0239 H         1 UNK         0.0616 
    135 H135       33.3515   27.5876    6.4553 H         1 UNK         0.0616 
    136 H136       32.4053   27.4445    4.0158 H         1 UNK         0.0634 
    137 H137       31.9168   26.0559    4.9673 H         1 UNK         0.0634 
@<TRIPOS>BOND
     1    1    2 1    
     2    1   72 1    
     3    1   73 1    
     4    1   74 1    
     5    2    3 2    
     6    2    4 am   BACKBONE|DICT|INTERRES
     7    4    5 1    
     8    4   75 1    
     9    5    6 1    
    10    5   35 1    
    11    5   76 1    
    12    6    7 1    
    13    6   77 1    
    14    6   78 1    
    15    7    8 1    
    16    8    9 1    
    17    8   79 1    
    18    8   80 1    
    19    9   10 ar   
    20    9   14 ar   
    21   10   11 ar   
    22   10   81 1    
    23   11   12 ar   
    24   11   71 1    
    25   12   13 ar   
    26   12   82 1    
    27   13   14 ar   
    28   13   15 1    
    29   14   83 1    
    30   15   16 1    
    31   15   84 1    
    32   15   85 1    
    33   16   17 1    
    34   17   18 1    
    35   17   86 1    
    36   17   87 1    
    37   18   19 1    
    38   18   37 1    
    39   18   88 1    
    40   19   20 am   BACKBONE|DICT|INTERRES
    41   19   89 1    
    42   20   21 2    
    43   20   22 1    
    44   22   23 1    
    45   22   24 1    
    46   22   90 1    
    47   23   91 1    
    48   23   92 1    
    49   23   93 1    
    50   24   25 am   BACKBONE|DICT|INTERRES
    51   24   94 1    
    52   25   26 2    
    53   25   27 1    
    54   27   28 1    
    55   27   29 1    
    56   27   95 1    
    57   28   96 1    
    58   28   97 1    
    59   28   98 1    
    60   29   30 am   BACKBONE|DICT|INTERRES
    61   29   99 1    
    62   30   31 2    
    63   30   32 1    
    64   32   33 1    
    65   32   34 1    
    66   32  100 1    
    67   33  101 1    
    68   33  102 1    
    69   33  103 1    
    70   34   35 am   BACKBONE|DICT|INTERRES
    71   34  104 1    
    72   35   36 2    
    73   37   38 2    
    74   37   39 am   BACKBONE|DICT|INTERRES
    75   39   40 1    
    76   39  105 1    
    77   40   41 1    
    78   40   42 1    
    79   40  106 1    
    80   41  107 1    
    81   41  108 1    
    82   41  109 1    
    83   42   43 2    
    84   42   44 am   BACKBONE|DICT|INTERRES
    85   44   45 1    
    86   44  110 1    
    87   45   46 1    
    88   45   47 1    
    89   45  111 1    
    90   46  112 1    
    91   46  113 1    
    92   46  114 1    
    93   47   48 2    
    94   47   49 am   BACKBONE|DICT|INTERRES
    95   49   50 1    
    96   49  115 1    
    97   50   51 1    
    98   50   52 1    
    99   50  116 1    
   100   51  117 1    
   101   51  118 1    
   102   51  119 1    
   103   52   53 2    
   104   52   54 am   BACKBONE|DICT|INTERRES
   105   54   55 1    
   106   54  120 1    
   107   55   56 1    
   108   55   57 1    
   109   55  121 1    
   110   56  122 1    
   111   56  123 1    
   112   56  124 1    
   113   57   58 2    
   114   57   59 am   BACKBONE|DICT|INTERRES
   115   59   60 1    
   116   59  125 1    
   117   60   61 1    
   118   60   62 1    
   119   60  126 1    
   120   61  127 1    
   121   61  128 1    
   122   61  129 1    
   123   62   63 2    
   124   62   64 am   BACKBONE|DICT|INTERRES
   125   64   65 1    
   126   64  130 1    
   127   65   66 1    
   128   65   69 1    
   129   65  131 1    
   130   66   67 am   BACKBONE|DICT|INTERRES
   131   66   68 2    
   132   67  132 1    
   133   67  133 1    
   134   69   70 1    
   135   69  134 1    
   136   69  135 1    
   137   70   71 1    
   138   71  136 1    
   139   71  137 1    
@<TRIPOS>SUBSTRUCTURE
     1 UNK         1 GROUP             0       ****    0 ROOT    
