@<TRIPOS>MOLECULE
3R136
137   139    1
SMALL
USER_CHARGES


@<TRIPOS>ATOM
      1 CA         29.9904   20.9743    3.9408 C.3       0 UNK        -0.1979 
      2 C          29.2931   20.5222    2.6657 C.2       0 UNK         0.4864 
      3 O          28.5986   19.5043    2.6728 O.2       0 UNK        -0.5359 
      4 N          29.4832   21.2698    1.5727 N.am      1 UNK        -0.4318 
      5 CA         28.8192   21.0742    0.2824 C.3       1 UNK         0.0824 
      6 C6         29.6902   21.6307   -0.8786 C.3       12 UNK        -0.0944 
      7 S7         29.6681   23.4442   -1.1197 S.3       12 UNK        -0.2672 
      8 C8         31.1077   24.0075   -0.1452 C.3       12 UNK         0.0333 
      9 C9         30.8461   24.2841    1.3382 C.ar      12 UNK        -0.0807 
     10 C10        31.9427   24.5321    2.1697 C.ar      12 UNK        -0.0894 
     11 C11        31.7648   24.8407    3.5220 C.ar      12 UNK        -0.0804 
     12 C12        30.4723   24.8950    4.0512 C.ar      12 UNK        -0.0824 
     13 C13        29.3627   24.6626    3.2346 C.ar      12 UNK        -0.0762 
     14 C14        29.5577   24.3533    1.8852 C.ar      12 UNK        -0.0782 
     15 C15        27.9522   24.7758    3.8012 C.3       12 UNK         0.0230 
     16 S16        26.9124   25.9627    2.8815 S.3       12 UNK        -0.2608 
     17 C17        27.8616   27.5184    3.0320 C.3       12 UNK        -0.0989 
     18 CA         28.8173   27.7538    1.8313 C.3       5 UNK         0.0716 
     19 N          28.1190   27.7026    0.5453 N.am      5 UNK        -0.4135 
     20 C          28.6614   27.3769   -0.6327 C.2       4 UNK         0.5031 
     21 O          29.8720   27.2045   -0.7918 O.2       4 UNK        -0.5229 
     22 CA         27.6928   27.2221   -1.8240 C.3       4 UNK         0.0329 
     23 CB         28.3963   26.7125   -3.0956 C.3       4 UNK        -0.2001 
     24 N          26.5499   26.3459   -1.5367 N.am      4 UNK        -0.4303 
     25 C          25.4719   26.6707   -0.8143 C.2       3 UNK         0.5044 
     26 O          25.3641   27.7441   -0.2190 O.2       3 UNK        -0.5152 
     27 CA         24.3027   25.6683   -0.7490 C.3       3 UNK         0.0319 
     28 CB         23.3773   25.8460   -1.9684 C.3       3 UNK        -0.2001 
     29 N          24.6409   24.2489   -0.5554 N.am      3 UNK        -0.4354 
     30 C          25.3181   23.4167   -1.3588 C.2       2 UNK         0.4964 
     31 O          25.9122   23.7630   -2.3819 O.2       2 UNK        -0.5047 
     32 CA         25.2829   21.9265   -0.9778 C.3       2 UNK         0.0288 
     33 CB         24.5621   21.1039   -2.0595 C.3       2 UNK        -0.2113 
     34 N          26.6329   21.3990   -0.7901 N.am      2 UNK        -0.4145 
     35 C          27.3746   21.6302    0.3002 C.2       1 UNK         0.5006 
     36 O          26.9564   22.2618    1.2753 O.2       1 UNK        -0.5103 
     37 C          29.6817   29.0180    1.9866 C.2       5 UNK         0.5055 
     38 O          29.4155   29.8371    2.8675 O.2       5 UNK        -0.5220 
     39 N          30.7108   29.1260    1.1319 N.am      6 UNK        -0.4450 
     40 CA         31.8520   30.0485    1.1810 C.3       6 UNK         0.0367 
     41 CB         32.8981   29.5062    2.1735 C.3       6 UNK        -0.1929 
     42 C          31.4653   31.5107    1.4682 C.2       6 UNK         0.5070 
     43 O          31.9461   32.0964    2.4425 O.2       6 UNK        -0.5237 
     44 N          30.5548   32.0427    0.6395 N.am      7 UNK        -0.4739 
     45 CA         29.9319   33.3756    0.6798 C.3       7 UNK         0.0276 
     46 CB         30.9787   34.4933    0.4986 C.3       7 UNK        -0.1927 
     47 C          29.0546   33.6263    1.9210 C.2       7 UNK         0.5013 
     48 O          27.8749   33.9486    1.7759 O.2       7 UNK        -0.5193 
     49 N          29.6448   33.4691    3.1071 N.am      8 UNK        -0.4253 
     50 CA         29.0234   33.6091    4.4194 C.3       8 UNK         0.0242 
     51 CB         28.9442   35.0982    4.8144 C.3       8 UNK        -0.2000 
     52 C          29.7954   32.7498    5.4330 C.2       8 UNK         0.4948 
     53 O          30.1747   33.2453    6.4955 O.2       8 UNK        -0.5275 
     54 N          30.0351   31.4804    5.0700 N.am      9 UNK        -0.4246 
     55 CA         30.7605   30.4569    5.8293 C.3       9 UNK         0.0261 
     56 CB         29.9870   30.0654    7.1064 C.3       9 UNK        -0.1959 
     57 C          32.2354   30.8093    6.1009 C.2       9 UNK         0.5033 
     58 O          32.7703   30.4294    7.1449 O.2       9 UNK        -0.5390 
     59 N          32.9018   31.4750    5.1449 N.am      10 UNK        -0.4215 
     60 CA         34.3341   31.7983    5.1875 C.3       10 UNK         0.0240 
     61 CB         34.5948   33.0346    4.3064 C.3       10 UNK        -0.1982 
     62 C          35.2107   30.5892    4.7916 C.2       10 UNK         0.4970 
     63 O          36.1087   30.7193    3.9576 O.2       10 UNK        -0.4916 
     64 N          34.9029   29.4247    5.3703 N.am      11 UNK        -0.4279 
     65 CA         35.5530   28.1331    5.1257 C.3       11 UNK         0.1003 
     66 C          36.9937   28.0780    5.7015 C.2       11 UNK         0.5709 
     67 N          37.8851   27.3285    5.0673 N.am      11 UNK        -0.7358 
     68 O          37.3004   28.6727    6.7339 O.2       11 UNK        -0.4999 
     69 C69        34.6853   26.9717    5.6772 C.3       12 UNK        -0.0954 
     70 S70        33.0542   26.8866    4.8598 S.3       12 UNK        -0.2268 
     71 C71        32.9680   25.1258    4.4089 C.3       12 UNK         0.0203 
     72 H72        29.2538   21.3008    4.6743 H         1 UNK         0.0888 
     73 H73        30.5617   20.1521    4.3708 H         1 UNK         0.0888 
     74 H74        30.6759   21.8019    3.7576 H         1 UNK         0.0888 
     75 H75        30.0205   22.1226    1.6493 H         1 UNK         0.3017 
     76 H76        28.7292   19.9969    0.1252 H         1 UNK         0.0873 
     77 H77        30.7219   21.2927   -0.7690 H         1 UNK         0.0745 
     78 H78        29.3542   21.1896   -1.8183 H         1 UNK         0.0745 
     79 H79        31.4659   24.9339   -0.5962 H         1 UNK         0.0705 
     80 H80        31.9188   23.2857   -0.2507 H         1 UNK         0.0705 
     81 H81        32.9420   24.5009    1.7567 H         1 UNK         0.1334 
     82 H82        30.3348   25.1427    5.0950 H         1 UNK         0.1417 
     83 H83        28.6860   24.2082    1.2636 H         1 UNK         0.1562 
     84 H84        27.9747   25.0676    4.8523 H         1 UNK         0.0748 
     85 H85        27.4797   23.7932    3.7624 H         1 UNK         0.0748 
     86 H86        28.4194   27.5046    3.9706 H         1 UNK         0.0940 
     87 H87        27.1491   28.3410    3.1161 H         1 UNK         0.0940 
     88 H88        29.5432   26.9444    1.8359 H         1 UNK         0.0703 
     89 H89        27.1124   27.8381    0.5714 H         1 UNK         0.3081 
     90 H90        27.3083   28.2205   -2.0424 H         1 UNK         0.0719 
     91 H91        28.8085   25.7132   -2.9529 H         1 UNK         0.0809 
     92 H92        27.7091   26.6732   -3.9409 H         1 UNK         0.0809 
     93 H93        29.2199   27.3686   -3.3802 H         1 UNK         0.0809 
     94 H94        26.5520   25.4243   -1.9696 H         1 UNK         0.2990 
     95 H95        23.7241   25.9426    0.1348 H         1 UNK         0.0690 
     96 H96        22.4799   25.2338   -1.8780 H         1 UNK         0.0788 
     97 H97        23.8752   25.5753   -2.9001 H         1 UNK         0.0788 
     98 H98        23.0523   26.8830   -2.0644 H         1 UNK         0.0788 
     99 H99        24.2549   23.8485    0.2890 H         1 UNK         0.2993 
    100 H100       24.7284   21.8068   -0.0439 H         1 UNK         0.0949 
    101 H101       25.0758   21.1585   -3.0204 H         1 UNK         0.0767 
    102 H102       24.4895   20.0534   -1.7768 H         1 UNK         0.0767 
    103 H103       23.5455   21.4688   -2.2129 H         1 UNK         0.0767 
    104 H104       27.0449   20.9196   -1.5772 H         1 UNK         0.3013 
    105 H105       30.7467   28.4205    0.3983 H         1 UNK         0.3121 
    106 H106       32.3052   30.0408    0.1886 H         1 UNK         0.0774 
    107 H107       33.7844   30.1411    2.1946 H         1 UNK         0.0815 
    108 H108       32.5013   29.4542    3.1868 H         1 UNK         0.0815 
    109 H109       33.2267   28.5043    1.8973 H         1 UNK         0.0815 
    110 H110       30.1987   31.4354   -0.0860 H         1 UNK         0.2987 
    111 H111       29.2641   33.4163   -0.1826 H         1 UNK         0.0949 
    112 H112       30.4987   35.4720    0.4593 H         1 UNK         0.0806 
    113 H113       31.7000   34.5207    1.3159 H         1 UNK         0.0806 
    114 H114       31.5334   34.3679   -0.4312 H         1 UNK         0.0806 
    115 H115       30.6070   33.1334    3.0928 H         1 UNK         0.3010 
    116 H116       28.0091   33.2066    4.3750 H         1 UNK         0.0829 
    117 H117       28.3550   35.6703    4.0977 H         1 UNK         0.0813 
    118 H118       28.4712   35.2202    5.7896 H         1 UNK         0.0813 
    119 H119       29.9351   35.5504    4.8706 H         1 UNK         0.0813 
    120 H120       29.6923   31.1544    4.1669 H         1 UNK         0.3038 
    121 H121       30.7878   29.5739    5.1891 H         1 UNK         0.0769 
    122 H122       30.4473   29.2054    7.5944 H         1 UNK         0.0811 
    123 H123       28.9571   29.7919    6.8774 H         1 UNK         0.0811 
    124 H124       29.9665   30.8785    7.8326 H         1 UNK         0.0811 
    125 H125       32.4220   31.7066    4.2782 H         1 UNK         0.3204 
    126 H126       34.6026   32.0637    6.2121 H         1 UNK         0.0748 
    127 H127       35.6319   33.3622    4.3889 H         1 UNK         0.0771 
    128 H128       34.4011   32.8276    3.2533 H         1 UNK         0.0771 
    129 H129       33.9659   33.8740    4.6036 H         1 UNK         0.0771 
    130 H130       34.1759   29.4312    6.0764 H         1 UNK         0.2980 
    131 H131       35.6288   28.0131    4.0429 H         1 UNK         0.0545 
    132 H132       38.8224   27.2678    5.4335 H         1 UNK         0.3459 
    133 H133       37.6428   26.8271    4.2270 H         1 UNK         0.3459 
    134 H134       34.5266   27.0852    6.7512 H         1 UNK         0.0616 
    135 H135       35.2002   26.0183    5.5453 H         1 UNK         0.0616 
    136 H136       33.8905   24.8377    3.9024 H         1 UNK         0.0634 
    137 H137       32.9071   24.5229    5.3160 H         1 UNK         0.0634 
@<TRIPOS>BOND
     1    1    2 1    
     2    1   72 1    
     3    1   73 1    
     4    1   74 1    
     5    2    3 2    
     6    2    4 am   BACKBONE|DICT|INTERRES
     7    4    5 1    
     8    4   75 1    
     9    5    6 1    
    10    5   35 1    
    11    5   76 1    
    12    6    7 1    
    13    6   77 1    
    14    6   78 1    
    15    7    8 1    
    16    8    9 1    
    17    8   79 1    
    18    8   80 1    
    19    9   10 ar   
    20    9   14 ar   
    21   10   11 ar   
    22   10   81 1    
    23   11   12 ar   
    24   11   71 1    
    25   12   13 ar   
    26   12   82 1    
    27   13   14 ar   
    28   13   15 1    
    29   14   83 1    
    30   15   16 1    
    31   15   84 1    
    32   15   85 1    
    33   16   17 1    
    34   17   18 1    
    35   17   86 1    
    36   17   87 1    
    37   18   19 1    
    38   18   37 1    
    39   18   88 1    
    40   19   20 am   BACKBONE|DICT|INTERRES
    41   19   89 1    
    42   20   21 2    
    43   20   22 1    
    44   22   23 1    
    45   22   24 1    
    46   22   90 1    
    47   23   91 1    
    48   23   92 1    
    49   23   93 1    
    50   24   25 am   BACKBONE|DICT|INTERRES
    51   24   94 1    
    52   25   26 2    
    53   25   27 1    
    54   27   28 1    
    55   27   29 1    
    56   27   95 1    
    57   28   96 1    
    58   28   97 1    
    59   28   98 1    
    60   29   30 am   BACKBONE|DICT|INTERRES
    61   29   99 1    
    62   30   31 2    
    63   30   32 1    
    64   32   33 1    
    65   32   34 1    
    66   32  100 1    
    67   33  101 1    
    68   33  102 1    
    69   33  103 1    
    70   34   35 am   BACKBONE|DICT|INTERRES
    71   34  104 1    
    72   35   36 2    
    73   37   38 2    
    74   37   39 am   BACKBONE|DICT|INTERRES
    75   39   40 1    
    76   39  105 1    
    77   40   41 1    
    78   40   42 1    
    79   40  106 1    
    80   41  107 1    
    81   41  108 1    
    82   41  109 1    
    83   42   43 2    
    84   42   44 am   BACKBONE|DICT|INTERRES
    85   44   45 1    
    86   44  110 1    
    87   45   46 1    
    88   45   47 1    
    89   45  111 1    
    90   46  112 1    
    91   46  113 1    
    92   46  114 1    
    93   47   48 2    
    94   47   49 am   BACKBONE|DICT|INTERRES
    95   49   50 1    
    96   49  115 1    
    97   50   51 1    
    98   50   52 1    
    99   50  116 1    
   100   51  117 1    
   101   51  118 1    
   102   51  119 1    
   103   52   53 2    
   104   52   54 am   BACKBONE|DICT|INTERRES
   105   54   55 1    
   106   54  120 1    
   107   55   56 1    
   108   55   57 1    
   109   55  121 1    
   110   56  122 1    
   111   56  123 1    
   112   56  124 1    
   113   57   58 2    
   114   57   59 am   BACKBONE|DICT|INTERRES
   115   59   60 1    
   116   59  125 1    
   117   60   61 1    
   118   60   62 1    
   119   60  126 1    
   120   61  127 1    
   121   61  128 1    
   122   61  129 1    
   123   62   63 2    
   124   62   64 am   BACKBONE|DICT|INTERRES
   125   64   65 1    
   126   64  130 1    
   127   65   66 1    
   128   65   69 1    
   129   65  131 1    
   130   66   67 am   BACKBONE|DICT|INTERRES
   131   66   68 2    
   132   67  132 1    
   133   67  133 1    
   134   69   70 1    
   135   69  134 1    
   136   69  135 1    
   137   70   71 1    
   138   71  136 1    
   139   71  137 1    
@<TRIPOS>SUBSTRUCTURE
     1 UNK         1 GROUP             0       ****    0 ROOT    
