@<TRIPOS>MOLECULE
3R136
137   139    1
SMALL
USER_CHARGES


@<TRIPOS>ATOM
      1 CA         25.1601   23.3044    2.8547 C.3       0 UNK        -0.1979 
      2 C          26.2930   23.1975    1.8462 C.2       0 UNK         0.4864 
      3 O          26.7421   24.2222    1.3246 O.2       0 UNK        -0.5359 
      4 N          26.7626   21.9709    1.5711 N.am      1 UNK        -0.4318 
      5 CA         27.7724   21.6496    0.5527 C.3       1 UNK         0.0824 
      6 C6         29.1502   22.2930    0.8788 C.3       12 UNK        -0.0944 
      7 S7         30.5591   21.5539   -0.0161 S.3       12 UNK        -0.2672 
      8 C8         31.8955   21.6778    1.2205 C.3       12 UNK         0.0333 
      9 C9         32.0116   23.0807    1.8036 C.ar      12 UNK        -0.0807 
     10 C10        32.4388   24.1460    1.0049 C.ar      12 UNK        -0.0894 
     11 C11        32.5015   25.4471    1.5145 C.ar      12 UNK        -0.0804 
     12 C12        32.1298   25.6658    2.8485 C.ar      12 UNK        -0.0824 
     13 C13        31.7112   24.6094    3.6629 C.ar      12 UNK        -0.0762 
     14 C14        31.6671   23.3160    3.1376 C.ar      12 UNK        -0.0782 
     15 C15        31.3229   24.8792    5.1132 C.3       12 UNK         0.0230 
     16 S16        29.6628   24.2668    5.5766 S.3       12 UNK        -0.2608 
     17 C17        28.5724   24.7338    4.1859 C.3       12 UNK        -0.0989 
     18 CA         28.6206   26.2203    3.7504 C.3       5 UNK         0.0716 
     19 N          28.3020   26.3640    2.3218 N.am      5 UNK        -0.4135 
     20 C          28.5958   27.4493    1.5900 C.2       4 UNK         0.5031 
     21 O          29.0921   28.4660    2.0719 O.2       4 UNK        -0.5229 
     22 CA         28.2572   27.4364    0.0943 C.3       4 UNK         0.0329 
     23 CB         29.4794   26.9960   -0.7265 C.3       4 UNK        -0.2001 
     24 N          27.1269   26.5659   -0.2326 N.am      4 UNK        -0.4303 
     25 C          26.0928   26.9145   -1.0087 C.2       3 UNK         0.5044 
     26 O          25.8980   28.0575   -1.4279 O.2       3 UNK        -0.5152 
     27 CA         25.1465   25.7664   -1.4172 C.3       3 UNK         0.0319 
     28 CB         24.0921   26.1904   -2.4611 C.3       3 UNK        -0.2001 
     29 N          25.8837   24.5812   -1.8783 N.am      3 UNK        -0.4354 
     30 C          26.7937   24.5055   -2.8646 C.2       2 UNK         0.4964 
     31 O          27.0682   25.4422   -3.6164 O.2       2 UNK        -0.5047 
     32 CA         27.5487   23.1642   -3.0100 C.3       2 UNK         0.0288 
     33 CB         28.7803   23.2739   -3.9293 C.3       2 UNK        -0.2113 
     34 N          27.9817   22.6349   -1.7122 N.am      2 UNK        -0.4145 
     35 C          27.2026   21.9723   -0.8490 C.2       1 UNK         0.5006 
     36 O          26.0365   21.6623   -1.1080 O.2       1 UNK        -0.5103 
     37 C          27.7751   27.1421    4.6577 C.2       5 UNK         0.5055 
     38 O          28.1711   27.4117    5.7914 O.2       5 UNK        -0.5220 
     39 N          26.6640   27.6735    4.1266 N.am      6 UNK        -0.4450 
     40 CA         25.8873   28.7609    4.7279 C.3       6 UNK         0.0367 
     41 CB         24.5640   28.9113    3.9598 C.3       6 UNK        -0.1929 
     42 C          26.6431   30.1072    4.7674 C.2       6 UNK         0.5070 
     43 O          26.2661   30.9787    5.5507 O.2       6 UNK        -0.5237 
     44 N          27.6879   30.2565    3.9409 N.am      7 UNK        -0.4739 
     45 CA         28.5609   31.4258    3.8606 C.3       7 UNK         0.0276 
     46 CB         28.3563   32.1108    2.4962 C.3       7 UNK        -0.1927 
     47 C          30.0208   30.9995    4.0907 C.2       7 UNK         0.5013 
     48 O          30.9158   31.4608    3.3802 O.2       7 UNK        -0.5193 
     49 N          30.2454   30.1364    5.0954 N.am      8 UNK        -0.4253 
     50 CA         31.5414   29.5387    5.4525 C.3       8 UNK         0.0242 
     51 CB         31.3713   28.6580    6.7002 C.3       8 UNK        -0.2000 
     52 C          32.6946   30.5364    5.6730 C.2       8 UNK         0.4948 
     53 O          33.8496   30.1738    5.4522 O.2       8 UNK        -0.5275 
     54 N          32.3696   31.7783    6.0591 N.am      9 UNK        -0.4246 
     55 CA         33.3088   32.8969    6.1701 C.3       9 UNK         0.0261 
     56 CB         32.5891   34.1005    6.7999 C.3       9 UNK        -0.1959 
     57 C          33.9637   33.3005    4.8335 C.2       9 UNK         0.5033 
     58 O          35.0834   33.8137    4.8560 O.2       9 UNK        -0.5390 
     59 N          33.2791   33.0641    3.7031 N.am      10 UNK        -0.4215 
     60 CA         33.8265   33.2692    2.3597 C.3       10 UNK         0.0240 
     61 CB         32.6806   33.4887    1.3579 C.3       10 UNK        -0.1982 
     62 C          34.7122   32.0913    1.9211 C.2       10 UNK         0.4970 
     63 O          35.7066   32.3133    1.2291 O.2       10 UNK        -0.4916 
     64 N          34.3401   30.8706    2.3282 N.am      11 UNK        -0.4279 
     65 CA         35.1047   29.6375    2.0907 C.3       11 UNK         0.1003 
     66 C          36.4227   29.5802    2.9093 C.2       11 UNK         0.5709 
     67 N          36.4055   29.9499    4.1837 N.am      11 UNK        -0.7358 
     68 O          37.4661   29.2022    2.3821 O.2       11 UNK        -0.4999 
     69 C69        34.2462   28.3735    2.3466 C.3       12 UNK        -0.0954 
     70 S70        32.8114   28.2718    1.2231 S.3       12 UNK        -0.2268 
     71 C71        32.9724   26.5672    0.5805 C.3       12 UNK         0.0203 
     72 H72        25.0700   22.4020    3.4590 H         1 UNK         0.0888 
     73 H73        25.3252   24.1463    3.5259 H         1 UNK         0.0888 
     74 H74        24.2159   23.4663    2.3359 H         1 UNK         0.0888 
     75 H75        26.3317   21.1708    2.0132 H         1 UNK         0.3017 
     76 H76        27.8936   20.5657    0.5836 H         1 UNK         0.0873 
     77 H77        29.1487   23.3715    0.7106 H         1 UNK         0.0745 
     78 H78        29.3386   22.1624    1.9448 H         1 UNK         0.0745 
     79 H79        32.8409   21.4003    0.7522 H         1 UNK         0.0705 
     80 H80        31.7162   20.9441    2.0079 H         1 UNK         0.0705 
     81 H81        32.7074   23.9602   -0.0264 H         1 UNK         0.1334 
     82 H82        32.1595   26.6595    3.2682 H         1 UNK         0.1417 
     83 H83        31.3391   22.4979    3.7647 H         1 UNK         0.1562 
     84 H84        31.3720   25.9455    5.3337 H         1 UNK         0.0748 
     85 H85        32.0594   24.4072    5.7646 H         1 UNK         0.0748 
     86 H86        27.5537   24.4352    4.4359 H         1 UNK         0.0940 
     87 H87        28.8620   24.0955    3.3508 H         1 UNK         0.0940 
     88 H88        29.6436   26.5791    3.8577 H         1 UNK         0.0703 
     89 H89        27.8340   25.5727    1.8861 H         1 UNK         0.3081 
     90 H90        28.0232   28.4681   -0.1768 H         1 UNK         0.0719 
     91 H91        29.8113   25.9933   -0.4535 H         1 UNK         0.0809 
     92 H92        29.2622   26.9987   -1.7950 H         1 UNK         0.0809 
     93 H93        30.3148   27.6778   -0.5649 H         1 UNK         0.0809 
     94 H94        27.1475   25.6138    0.1239 H         1 UNK         0.2990 
     95 H95        24.6171   25.4686   -0.5107 H         1 UNK         0.0690 
     96 H96        24.5543   26.5336   -3.3874 H         1 UNK         0.0788 
     97 H97        23.4749   27.0066   -2.0837 H         1 UNK         0.0788 
     98 H98        23.4231   25.3656   -2.7061 H         1 UNK         0.0788 
     99 H99        25.7336   23.7373   -1.3369 H         1 UNK         0.2993 
    100 H100       26.8535   22.4573   -3.4683 H         1 UNK         0.0949 
    101 H101       29.5062   23.9925   -3.5460 H         1 UNK         0.0767 
    102 H102       29.2834   22.3124   -4.0347 H         1 UNK         0.0767 
    103 H103       28.4953   23.5984   -4.9311 H         1 UNK         0.0767 
    104 H104       28.9288   22.8456   -1.4269 H         1 UNK         0.3013 
    105 H105       26.4047   27.3952    3.1917 H         1 UNK         0.3121 
    106 H106       25.6581   28.4843    5.7593 H         1 UNK         0.0774 
    107 H107       23.9435   29.6921    4.4021 H         1 UNK         0.0815 
    108 H108       24.7305   29.1810    2.9161 H         1 UNK         0.0815 
    109 H109       23.9837   27.9887    3.9819 H         1 UNK         0.0815 
    110 H110       27.9694   29.4813    3.3464 H         1 UNK         0.2987 
    111 H111       28.3170   32.1446    4.6456 H         1 UNK         0.0949 
    112 H112       28.6343   31.4512    1.6727 H         1 UNK         0.0806 
    113 H113       27.3172   32.4072    2.3533 H         1 UNK         0.0806 
    114 H114       28.9647   33.0124    2.4133 H         1 UNK         0.0806 
    115 H115       29.4433   29.8009    5.6111 H         1 UNK         0.3010 
    116 H116       31.8290   28.8977    4.6172 H         1 UNK         0.0829 
    117 H117       32.3100   28.1687    6.9648 H         1 UNK         0.0813 
    118 H118       31.0527   29.2417    7.5647 H         1 UNK         0.0813 
    119 H119       30.6354   27.8717    6.5402 H         1 UNK         0.0813 
    120 H120       31.3953   31.9834    6.2243 H         1 UNK         0.3038 
    121 H121       34.1110   32.5868    6.8433 H         1 UNK         0.0769 
    122 H122       33.2720   34.9425    6.9224 H         1 UNK         0.0811 
    123 H123       32.1977   33.8579    7.7880 H         1 UNK         0.0811 
    124 H124       31.7578   34.4430    6.1821 H         1 UNK         0.0811 
    125 H125       32.3703   32.6078    3.7535 H         1 UNK         0.3204 
    126 H126       34.4442   34.1700    2.3633 H         1 UNK         0.0748 
    127 H127       33.0716   33.7128    0.3645 H         1 UNK         0.0771 
    128 H128       32.0462   32.6065    1.2646 H         1 UNK         0.0771 
    129 H129       32.0486   34.3259    1.6545 H         1 UNK         0.0771 
    130 H130       33.5077   30.7758    2.8903 H         1 UNK         0.2980 
    131 H131       35.3903   29.6303    1.0367 H         1 UNK         0.0545 
    132 H132       35.5234   30.1773    4.6369 H         1 UNK         0.3459 
    133 H133       37.2564   29.9210    4.7213 H         1 UNK         0.3459 
    134 H134       34.8534   27.4742    2.2285 H         1 UNK         0.0616 
    135 H135       33.8846   28.3577    3.3753 H         1 UNK         0.0616 
    136 H136       34.0116   26.3876    0.3018 H         1 UNK         0.0634 
    137 H137       32.4006   26.5079   -0.3457 H         1 UNK         0.0634 
@<TRIPOS>BOND
     1    1    2 1    
     2    1   72 1    
     3    1   73 1    
     4    1   74 1    
     5    2    3 2    
     6    2    4 am   BACKBONE|DICT|INTERRES
     7    4    5 1    
     8    4   75 1    
     9    5    6 1    
    10    5   35 1    
    11    5   76 1    
    12    6    7 1    
    13    6   77 1    
    14    6   78 1    
    15    7    8 1    
    16    8    9 1    
    17    8   79 1    
    18    8   80 1    
    19    9   10 ar   
    20    9   14 ar   
    21   10   11 ar   
    22   10   81 1    
    23   11   12 ar   
    24   11   71 1    
    25   12   13 ar   
    26   12   82 1    
    27   13   14 ar   
    28   13   15 1    
    29   14   83 1    
    30   15   16 1    
    31   15   84 1    
    32   15   85 1    
    33   16   17 1    
    34   17   18 1    
    35   17   86 1    
    36   17   87 1    
    37   18   19 1    
    38   18   37 1    
    39   18   88 1    
    40   19   20 am   BACKBONE|DICT|INTERRES
    41   19   89 1    
    42   20   21 2    
    43   20   22 1    
    44   22   23 1    
    45   22   24 1    
    46   22   90 1    
    47   23   91 1    
    48   23   92 1    
    49   23   93 1    
    50   24   25 am   BACKBONE|DICT|INTERRES
    51   24   94 1    
    52   25   26 2    
    53   25   27 1    
    54   27   28 1    
    55   27   29 1    
    56   27   95 1    
    57   28   96 1    
    58   28   97 1    
    59   28   98 1    
    60   29   30 am   BACKBONE|DICT|INTERRES
    61   29   99 1    
    62   30   31 2    
    63   30   32 1    
    64   32   33 1    
    65   32   34 1    
    66   32  100 1    
    67   33  101 1    
    68   33  102 1    
    69   33  103 1    
    70   34   35 am   BACKBONE|DICT|INTERRES
    71   34  104 1    
    72   35   36 2    
    73   37   38 2    
    74   37   39 am   BACKBONE|DICT|INTERRES
    75   39   40 1    
    76   39  105 1    
    77   40   41 1    
    78   40   42 1    
    79   40  106 1    
    80   41  107 1    
    81   41  108 1    
    82   41  109 1    
    83   42   43 2    
    84   42   44 am   BACKBONE|DICT|INTERRES
    85   44   45 1    
    86   44  110 1    
    87   45   46 1    
    88   45   47 1    
    89   45  111 1    
    90   46  112 1    
    91   46  113 1    
    92   46  114 1    
    93   47   48 2    
    94   47   49 am   BACKBONE|DICT|INTERRES
    95   49   50 1    
    96   49  115 1    
    97   50   51 1    
    98   50   52 1    
    99   50  116 1    
   100   51  117 1    
   101   51  118 1    
   102   51  119 1    
   103   52   53 2    
   104   52   54 am   BACKBONE|DICT|INTERRES
   105   54   55 1    
   106   54  120 1    
   107   55   56 1    
   108   55   57 1    
   109   55  121 1    
   110   56  122 1    
   111   56  123 1    
   112   56  124 1    
   113   57   58 2    
   114   57   59 am   BACKBONE|DICT|INTERRES
   115   59   60 1    
   116   59  125 1    
   117   60   61 1    
   118   60   62 1    
   119   60  126 1    
   120   61  127 1    
   121   61  128 1    
   122   61  129 1    
   123   62   63 2    
   124   62   64 am   BACKBONE|DICT|INTERRES
   125   64   65 1    
   126   64  130 1    
   127   65   66 1    
   128   65   69 1    
   129   65  131 1    
   130   66   67 am   BACKBONE|DICT|INTERRES
   131   66   68 2    
   132   67  132 1    
   133   67  133 1    
   134   69   70 1    
   135   69  134 1    
   136   69  135 1    
   137   70   71 1    
   138   71  136 1    
   139   71  137 1    
@<TRIPOS>SUBSTRUCTURE
     1 UNK         1 GROUP             0       ****    0 ROOT    
