@<TRIPOS>MOLECULE
3R136
137   139    1
SMALL
USER_CHARGES


@<TRIPOS>ATOM
      1 CA         29.3705   24.0926    5.3207 C.3       0 UNK        -0.1979 
      2 C          28.7074   23.1058    4.3713 C.2       0 UNK         0.4864 
      3 O          27.6657   22.5401    4.7049 O.2       0 UNK        -0.5359 
      4 N          29.3136   22.8913    3.1953 N.am      1 UNK        -0.4318 
      5 CA         28.8730   21.9411    2.1647 C.3       1 UNK         0.0824 
      6 C6         29.9152   21.8068    1.0275 C.3       12 UNK        -0.0944 
      7 S7         31.5114   21.1743    1.6361 S.3       12 UNK        -0.2672 
      8 C8         32.6491   21.7651    0.3431 C.3       12 UNK         0.0333 
      9 C9         32.9746   23.2466    0.4826 C.ar      12 UNK        -0.0807 
     10 C10        33.6694   23.7045    1.6060 C.ar      12 UNK        -0.0894 
     11 C11        34.0241   25.0512    1.7296 C.ar      12 UNK        -0.0804 
     12 C12        33.6799   25.9422    0.7072 C.ar      12 UNK        -0.0824 
     13 C13        32.9981   25.4976   -0.4335 C.ar      12 UNK        -0.0762 
     14 C14        32.6425   24.1477   -0.5347 C.ar      12 UNK        -0.0782 
     15 C15        32.7336   26.4667   -1.5835 C.3       12 UNK         0.0230 
     16 S16        31.0106   26.4430   -2.1972 S.3       12 UNK        -0.2608 
     17 C17        30.7632   28.2217   -2.5735 C.3       12 UNK        -0.0989 
     18 CA         29.9334   29.0122   -1.5236 C.3       5 UNK         0.0716 
     19 N          28.4997   28.7092   -1.6024 N.am      5 UNK        -0.4135 
     20 C          27.5377   29.3147   -0.8894 C.2       4 UNK         0.5031 
     21 O          27.7590   30.1496   -0.0103 O.2       4 UNK        -0.5229 
     22 CA         26.0842   28.9190   -1.1760 C.3       4 UNK         0.0329 
     23 CB         25.8887   28.0264   -2.4213 C.3       4 UNK        -0.2001 
     24 N          25.5719   28.2378    0.0042 N.am      4 UNK        -0.4303 
     25 C          24.3122   28.2451    0.4461 C.2       3 UNK         0.5044 
     26 O          23.4007   28.8805   -0.0873 O.2       3 UNK        -0.5152 
     27 CA         24.0301   27.3478    1.6707 C.3       3 UNK         0.0319 
     28 CB         22.5533   27.3813    2.1063 C.3       3 UNK        -0.2001 
     29 N          24.4231   25.9563    1.4201 N.am      3 UNK        -0.4354 
     30 C          25.6798   25.4933    1.4179 C.2       2 UNK         0.4964 
     31 O          26.6682   26.1848    1.6851 O.2       2 UNK        -0.5047 
     32 CA         25.8696   24.0480    0.9543 C.3       2 UNK         0.0288 
     33 CB         25.8661   23.9783   -0.5862 C.3       2 UNK        -0.2113 
     34 N          27.1374   23.5499    1.4770 N.am      2 UNK        -0.4145 
     35 C          27.4843   22.2608    1.5718 C.2       1 UNK         0.5006 
     36 O          26.7595   21.3318    1.2093 O.2       1 UNK        -0.5103 
     37 C          30.5074   28.8800   -0.0977 C.2       5 UNK         0.5055 
     38 O          31.2645   29.7465    0.3351 O.2       5 UNK        -0.5220 
     39 N          30.1188   27.8085    0.6062 N.am      6 UNK        -0.4450 
     40 CA         30.5906   27.4876    1.9498 C.3       6 UNK         0.0367 
     41 CB         30.2357   26.0313    2.2751 C.3       6 UNK        -0.1929 
     42 C          30.0398   28.4505    3.0096 C.2       6 UNK         0.5070 
     43 O          30.7637   28.7982    3.9414 O.2       6 UNK        -0.5237 
     44 N          28.7913   28.9007    2.8286 N.am      7 UNK        -0.4739 
     45 CA         28.1687   29.9366    3.6527 C.3       7 UNK         0.0276 
     46 CB         26.6546   29.9718    3.3949 C.3       7 UNK        -0.1927 
     47 C          28.8084   31.3136    3.4164 C.2       7 UNK         0.5013 
     48 O          29.0872   32.0191    4.3856 O.2       7 UNK        -0.5193 
     49 N          29.0707   31.6491    2.1441 N.am      8 UNK        -0.4253 
     50 CA         29.7581   32.8761    1.7299 C.3       8 UNK         0.0242 
     51 CB         29.6852   33.0185    0.2011 C.3       8 UNK        -0.2000 
     52 C          31.2161   32.9438    2.2191 C.2       8 UNK         0.4948 
     53 O          31.6473   33.9969    2.6898 O.2       8 UNK        -0.5275 
     54 N          31.9387   31.8188    2.1241 N.am      9 UNK        -0.4246 
     55 CA         33.3139   31.6599    2.6063 C.3       9 UNK         0.0261 
     56 CB         33.9272   30.4026    1.9651 C.3       9 UNK        -0.1959 
     57 C          33.4331   31.5735    4.1390 C.2       9 UNK         0.5033 
     58 O          34.5407   31.7387    4.6523 O.2       9 UNK        -0.5390 
     59 N          32.3178   31.2887    4.8297 N.am      10 UNK        -0.4215 
     60 CA         32.2065   30.9901    6.2626 C.3       10 UNK         0.0240 
     61 CB         32.5520   32.2252    7.1220 C.3       10 UNK        -0.1982 
     62 C          33.0112   29.7309    6.6408 C.2       10 UNK         0.4970 
     63 O          33.8161   29.7600    7.5741 O.2       10 UNK        -0.4916 
     64 N          32.7887   28.6577    5.8723 N.am      11 UNK        -0.4279 
     65 CA         33.4144   27.3386    6.0183 C.3       11 UNK         0.1003 
     66 C          33.1205   26.6833    7.3979 C.2       11 UNK         0.5709 
     67 N          34.1121   26.0568    8.0167 N.am      11 UNK        -0.7358 
     68 O          31.9942   26.7104    7.8916 O.2       11 UNK        -0.4999 
     69 C69        32.9836   26.4194    4.8451 C.3       12 UNK        -0.0954 
     70 S70        34.1546   25.0597    4.5342 S.3       12 UNK        -0.2268 
     71 C71        34.8619   25.5209    2.9167 C.3       12 UNK         0.0203 
     72 H72        30.4474   24.1361    5.1605 H         1 UNK         0.0888 
     73 H73        28.9557   25.0906    5.1811 H         1 UNK         0.0888 
     74 H74        29.2022   23.7956    6.3556 H         1 UNK         0.0888 
     75 H75        30.1920   23.3496    3.0009 H         1 UNK         0.3017 
     76 H76        28.7800   20.9681    2.6525 H         1 UNK         0.0873 
     77 H77        29.5629   21.1183    0.2564 H         1 UNK         0.0745 
     78 H78        30.0690   22.7692    0.5351 H         1 UNK         0.0745 
     79 H79        32.2269   21.5434   -0.6384 H         1 UNK         0.0705 
     80 H80        33.5774   21.1961    0.4105 H         1 UNK         0.0705 
     81 H81        33.9520   23.0032    2.3795 H         1 UNK         0.1334 
     82 H82        33.9788   26.9790    0.7824 H         1 UNK         0.1417 
     83 H83        32.1321   23.7959   -1.4211 H         1 UNK         0.1562 
     84 H84        33.4030   26.2256   -2.4102 H         1 UNK         0.0748 
     85 H85        32.9945   27.4779   -1.2683 H         1 UNK         0.0748 
     86 H86        31.7329   28.7034   -2.7107 H         1 UNK         0.0940 
     87 H87        30.2826   28.2937   -3.5505 H         1 UNK         0.0940 
     88 H88        30.0200   30.0690   -1.7855 H         1 UNK         0.0703 
     89 H89        28.2283   28.0177   -2.2858 H         1 UNK         0.3081 
     90 H90        25.5333   29.8501   -1.3249 H         1 UNK         0.0719 
     91 H91        26.3647   27.0514   -2.3090 H         1 UNK         0.0809 
     92 H92        24.8292   27.8492   -2.6074 H         1 UNK         0.0809 
     93 H93        26.2900   28.5006   -3.3181 H         1 UNK         0.0809 
     94 H94        26.2394   27.6799    0.5289 H         1 UNK         0.2990 
     95 H95        24.6261   27.7335    2.4991 H         1 UNK         0.0690 
     96 H96        22.2384   28.3989    2.3418 H         1 UNK         0.0788 
     97 H97        22.3898   26.7795    3.0005 H         1 UNK         0.0788 
     98 H98        21.8918   27.0074    1.3237 H         1 UNK         0.0788 
     99 H99        23.6799   25.3315    1.1410 H         1 UNK         0.2993 
    100 H100       25.0550   23.4422    1.3579 H         1 UNK         0.0949 
    101 H101       24.9378   24.3757   -0.9986 H         1 UNK         0.0767 
    102 H102       26.6871   24.5545   -1.0153 H         1 UNK         0.0767 
    103 H103       25.9591   22.9517   -0.9407 H         1 UNK         0.0767 
    104 H104       27.7544   24.2675    1.8335 H         1 UNK         0.3013 
    105 H105       29.5109   27.1385    0.1586 H         1 UNK         0.3121 
    106 H106       31.6775   27.5830    1.9517 H         1 UNK         0.0774 
    107 H107       30.6583   25.7367    3.2324 H         1 UNK         0.0815 
    108 H108       29.1589   25.8826    2.3352 H         1 UNK         0.0815 
    109 H109       30.6342   25.3483    1.5245 H         1 UNK         0.0815 
    110 H110       28.2755   28.5801    2.0223 H         1 UNK         0.2987 
    111 H111       28.3266   29.6763    4.7020 H         1 UNK         0.0949 
    112 H112       26.1756   30.7485    3.9926 H         1 UNK         0.0806 
    113 H113       26.4210   30.1745    2.3493 H         1 UNK         0.0806 
    114 H114       26.1922   29.0243    3.6686 H         1 UNK         0.0806 
    115 H115       28.7638   31.0221    1.4043 H         1 UNK         0.3010 
    116 H116       29.2228   33.7181    2.1742 H         1 UNK         0.0829 
    117 H117       30.1574   33.9453   -0.1275 H         1 UNK         0.0813 
    118 H118       30.1904   32.1967   -0.3068 H         1 UNK         0.0813 
    119 H119       28.6519   33.0392   -0.1459 H         1 UNK         0.0813 
    120 H120       31.5379   31.0205    1.6335 H         1 UNK         0.3038 
    121 H121       33.8918   32.5276    2.2813 H         1 UNK         0.0769 
    122 H122       34.9653   30.2705    2.2729 H         1 UNK         0.0811 
    123 H123       33.9186   30.4671    0.8769 H         1 UNK         0.0811 
    124 H124       33.3845   29.5008    2.2518 H         1 UNK         0.0811 
    125 H125       31.4697   31.1483    4.2961 H         1 UNK         0.3204 
    126 H126       31.1573   30.7488    6.4415 H         1 UNK         0.0748 
    127 H127       32.3582   32.0305    8.1775 H         1 UNK         0.0771 
    128 H128       33.6019   32.5055    7.0320 H         1 UNK         0.0771 
    129 H129       31.9491   33.0867    6.8349 H         1 UNK         0.0771 
    130 H130       32.0724   28.7273    5.1508 H         1 UNK         0.2980 
    131 H131       34.4898   27.5118    5.9431 H         1 UNK         0.0545 
    132 H132       33.9354   25.6159    8.9055 H         1 UNK         0.3459 
    133 H133       35.0312   26.0074    7.6055 H         1 UNK         0.3459 
    134 H134       31.9950   26.0000    5.0315 H         1 UNK         0.0616 
    135 H135       32.8943   26.9983    3.9258 H         1 UNK         0.0616 
    136 H136       35.0239   26.5996    2.8859 H         1 UNK         0.0634 
    137 H137       35.8491   25.0644    2.8352 H         1 UNK         0.0634 
@<TRIPOS>BOND
     1    1    2 1    
     2    1   72 1    
     3    1   73 1    
     4    1   74 1    
     5    2    3 2    
     6    2    4 am   BACKBONE|DICT|INTERRES
     7    4    5 1    
     8    4   75 1    
     9    5    6 1    
    10    5   35 1    
    11    5   76 1    
    12    6    7 1    
    13    6   77 1    
    14    6   78 1    
    15    7    8 1    
    16    8    9 1    
    17    8   79 1    
    18    8   80 1    
    19    9   10 ar   
    20    9   14 ar   
    21   10   11 ar   
    22   10   81 1    
    23   11   12 ar   
    24   11   71 1    
    25   12   13 ar   
    26   12   82 1    
    27   13   14 ar   
    28   13   15 1    
    29   14   83 1    
    30   15   16 1    
    31   15   84 1    
    32   15   85 1    
    33   16   17 1    
    34   17   18 1    
    35   17   86 1    
    36   17   87 1    
    37   18   19 1    
    38   18   37 1    
    39   18   88 1    
    40   19   20 am   BACKBONE|DICT|INTERRES
    41   19   89 1    
    42   20   21 2    
    43   20   22 1    
    44   22   23 1    
    45   22   24 1    
    46   22   90 1    
    47   23   91 1    
    48   23   92 1    
    49   23   93 1    
    50   24   25 am   BACKBONE|DICT|INTERRES
    51   24   94 1    
    52   25   26 2    
    53   25   27 1    
    54   27   28 1    
    55   27   29 1    
    56   27   95 1    
    57   28   96 1    
    58   28   97 1    
    59   28   98 1    
    60   29   30 am   BACKBONE|DICT|INTERRES
    61   29   99 1    
    62   30   31 2    
    63   30   32 1    
    64   32   33 1    
    65   32   34 1    
    66   32  100 1    
    67   33  101 1    
    68   33  102 1    
    69   33  103 1    
    70   34   35 am   BACKBONE|DICT|INTERRES
    71   34  104 1    
    72   35   36 2    
    73   37   38 2    
    74   37   39 am   BACKBONE|DICT|INTERRES
    75   39   40 1    
    76   39  105 1    
    77   40   41 1    
    78   40   42 1    
    79   40  106 1    
    80   41  107 1    
    81   41  108 1    
    82   41  109 1    
    83   42   43 2    
    84   42   44 am   BACKBONE|DICT|INTERRES
    85   44   45 1    
    86   44  110 1    
    87   45   46 1    
    88   45   47 1    
    89   45  111 1    
    90   46  112 1    
    91   46  113 1    
    92   46  114 1    
    93   47   48 2    
    94   47   49 am   BACKBONE|DICT|INTERRES
    95   49   50 1    
    96   49  115 1    
    97   50   51 1    
    98   50   52 1    
    99   50  116 1    
   100   51  117 1    
   101   51  118 1    
   102   51  119 1    
   103   52   53 2    
   104   52   54 am   BACKBONE|DICT|INTERRES
   105   54   55 1    
   106   54  120 1    
   107   55   56 1    
   108   55   57 1    
   109   55  121 1    
   110   56  122 1    
   111   56  123 1    
   112   56  124 1    
   113   57   58 2    
   114   57   59 am   BACKBONE|DICT|INTERRES
   115   59   60 1    
   116   59  125 1    
   117   60   61 1    
   118   60   62 1    
   119   60  126 1    
   120   61  127 1    
   121   61  128 1    
   122   61  129 1    
   123   62   63 2    
   124   62   64 am   BACKBONE|DICT|INTERRES
   125   64   65 1    
   126   64  130 1    
   127   65   66 1    
   128   65   69 1    
   129   65  131 1    
   130   66   67 am   BACKBONE|DICT|INTERRES
   131   66   68 2    
   132   67  132 1    
   133   67  133 1    
   134   69   70 1    
   135   69  134 1    
   136   69  135 1    
   137   70   71 1    
   138   71  136 1    
   139   71  137 1    
@<TRIPOS>SUBSTRUCTURE
     1 UNK         1 GROUP             0       ****    0 ROOT    
