@<TRIPOS>MOLECULE
3R136
137   139    1
SMALL
USER_CHARGES


@<TRIPOS>ATOM
      1 CA         32.8407   27.8861    1.4426 C.3       0 UNK        -0.1979 
      2 C          32.3863   26.4342    1.4357 C.2       0 UNK         0.4864 
      3 O          32.8919   25.6355    2.2235 O.2       0 UNK        -0.5359 
      4 N          31.4534   26.0958    0.5397 N.am      1 UNK        -0.4318 
      5 CA         30.8303   24.7850    0.3593 C.3       1 UNK         0.0824 
      6 C6         31.8419   23.6491    0.0061 C.3       12 UNK        -0.0944 
      7 S7         31.1710   21.9639    0.2342 S.3       12 UNK        -0.2672 
      8 C8         31.6047   21.5971    1.9666 C.3       12 UNK         0.0333 
      9 C9         30.7823   22.4051    2.9635 C.ar      12 UNK        -0.0807 
     10 C10        31.4194   23.2305    3.8949 C.ar      12 UNK        -0.0894 
     11 C11        30.6748   23.9628    4.8245 C.ar      12 UNK        -0.0804 
     12 C12        29.2811   23.8661    4.8184 C.ar      12 UNK        -0.0824 
     13 C13        28.6290   23.0647    3.8757 C.ar      12 UNK        -0.0762 
     14 C14        29.3853   22.3245    2.9620 C.ar      12 UNK        -0.0782 
     15 C15        27.1088   22.9965    3.8398 C.3       12 UNK         0.0230 
     16 S16        26.4035   24.1644    2.6290 S.3       12 UNK        -0.2608 
     17 C17        26.7369   25.7749    3.4165 C.3       12 UNK        -0.0989 
     18 CA         27.8142   26.5890    2.6402 C.3       5 UNK         0.0716 
     19 N          27.3460   27.0456    1.3261 N.am      5 UNK        -0.4135 
     20 C          26.4332   28.0051    1.1121 C.2       4 UNK         0.5031 
     21 O          25.8081   28.5748    2.0085 O.2       4 UNK        -0.5229 
     22 CA         26.1957   28.4191   -0.3458 C.3       4 UNK         0.0329 
     23 CB         27.3584   29.2841   -0.8615 C.3       4 UNK        -0.2001 
     24 N          26.0043   27.2675   -1.2271 N.am      4 UNK        -0.4303 
     25 C          24.8842   26.5305   -1.2781 C.2       3 UNK         0.5044 
     26 O          23.8898   26.7490   -0.5851 O.2       3 UNK        -0.5152 
     27 CA         24.8419   25.3730   -2.2939 C.3       3 UNK         0.0319 
     28 CB         24.0325   25.7795   -3.5366 C.3       3 UNK        -0.2001 
     29 N          26.1735   24.9338   -2.7162 N.am      3 UNK        -0.4354 
     30 C          26.9779   24.1532   -1.9837 C.2       2 UNK         0.4964 
     31 O          26.6411   23.6417   -0.9153 O.2       2 UNK        -0.5047 
     32 CA         28.3943   23.8894   -2.5308 C.3       2 UNK         0.0288 
     33 CB         28.8024   24.8030   -3.7109 C.3       2 UNK        -0.2113 
     34 N          29.4052   23.9471   -1.4701 N.am      2 UNK        -0.4145 
     35 C          29.6929   24.9815   -0.6675 C.2       1 UNK         0.5006 
     36 O          29.1106   26.0713   -0.7198 O.2       1 UNK        -0.5103 
     37 C          28.3994   27.7888    3.4210 C.2       5 UNK         0.5055 
     38 O          29.2732   28.4766    2.8896 O.2       5 UNK        -0.5220 
     39 N          27.8851   28.0541    4.6305 N.am      6 UNK        -0.4450 
     40 CA         28.3088   29.1408    5.5168 C.3       6 UNK         0.0367 
     41 CB         27.6941   28.9129    6.9079 C.3       6 UNK        -0.1929 
     42 C          27.9919   30.5594    5.0026 C.2       6 UNK         0.5070 
     43 O          28.4785   31.5235    5.5947 O.2       6 UNK        -0.5237 
     44 N          27.1995   30.6866    3.9258 N.am      7 UNK        -0.4739 
     45 CA         26.9768   31.9583    3.2297 C.3       7 UNK         0.0276 
     46 CB         25.7465   31.8449    2.3156 C.3       7 UNK        -0.1927 
     47 C          28.2071   32.4204    2.4251 C.2       7 UNK         0.5013 
     48 O          28.3144   33.6137    2.1384 O.2       7 UNK        -0.5193 
     49 N          29.1076   31.4885    2.0818 N.am      8 UNK        -0.4253 
     50 CA         30.4041   31.7746    1.4735 C.3       8 UNK         0.0242 
     51 CB         30.7275   30.6772    0.4479 C.3       8 UNK        -0.2000 
     52 C          31.4792   31.8477    2.5692 C.2       8 UNK         0.4948 
     53 O          31.3834   31.1433    3.5771 O.2       8 UNK        -0.5275 
     54 N          32.4875   32.7005    2.3523 N.am      9 UNK        -0.4246 
     55 CA         33.6150   32.8963    3.2665 C.3       9 UNK         0.0261 
     56 CB         34.3494   34.1923    2.8836 C.3       9 UNK        -0.1959 
     57 C          34.5873   31.7043    3.2470 C.2       9 UNK         0.5033 
     58 O          34.7373   31.0608    2.2053 O.2       9 UNK        -0.5390 
     59 N          35.2578   31.4794    4.3885 N.am      10 UNK        -0.4215 
     60 CA         36.2666   30.4403    4.6418 C.3       10 UNK         0.0240 
     61 CB         37.5569   30.7302    3.8440 C.3       10 UNK        -0.1982 
     62 C          35.7150   29.0221    4.4003 C.2       10 UNK         0.4970 
     63 O          36.1967   28.3148    3.5130 O.2       10 UNK        -0.4916 
     64 N          34.6856   28.6609    5.1793 N.am      11 UNK        -0.4279 
     65 CA         33.9537   27.3898    5.0804 C.3       11 UNK         0.1003 
     66 C          34.8566   26.1345    5.2334 C.2       11 UNK         0.5709 
     67 N          34.7241   25.1604    4.3445 N.am      11 UNK        -0.7358 
     68 O          35.6452   26.0304    6.1714 O.2       11 UNK        -0.4999 
     69 C69        32.7426   27.3491    6.0557 C.3       12 UNK        -0.0954 
     70 S70        31.2791   26.6029    5.2712 S.3       12 UNK        -0.2268 
     71 C71        31.3745   24.8740    5.8213 C.3       12 UNK         0.0203 
     72 H72        32.6655   28.3657    0.4804 H         1 UNK         0.0888 
     73 H73        32.3066   28.4435    2.2129 H         1 UNK         0.0888 
     74 H74        33.9080   27.9514    1.6547 H         1 UNK         0.0888 
     75 H75        31.0396   26.8072   -0.0508 H         1 UNK         0.3017 
     76 H76        30.3483   24.5448    1.3071 H         1 UNK         0.0873 
     77 H77        32.1952   23.7549   -1.0213 H         1 UNK         0.0745 
     78 H78        32.7393   23.7168    0.6198 H         1 UNK         0.0745 
     79 H79        31.4316   20.5363    2.1522 H         1 UNK         0.0705 
     80 H80        32.6736   21.7623    2.1116 H         1 UNK         0.0705 
     81 H81        32.4976   23.3125    3.8915 H         1 UNK         0.1334 
     82 H82        28.7086   24.4329    5.5389 H         1 UNK         0.1417 
     83 H83        28.8857   21.6975    2.2357 H         1 UNK         0.1562 
     84 H84        26.6895   23.1914    4.8282 H         1 UNK         0.0748 
     85 H85        26.7944   21.9861    3.5741 H         1 UNK         0.0748 
     86 H86        27.0383   25.5886    4.4466 H         1 UNK         0.0940 
     87 H87        25.7965   26.3256    3.4766 H         1 UNK         0.0940 
     88 H88        28.6638   25.9303    2.4551 H         1 UNK         0.0703 
     89 H89        27.8516   26.6734    0.5264 H         1 UNK         0.3081 
     90 H90        25.2889   29.0275   -0.3739 H         1 UNK         0.0719 
     91 H91        27.5133   30.1521   -0.2194 H         1 UNK         0.0809 
     92 H92        28.2977   28.7305   -0.8902 H         1 UNK         0.0809 
     93 H93        27.1592   29.6576   -1.8659 H         1 UNK         0.0809 
     94 H94        26.7877   26.9966   -1.8035 H         1 UNK         0.2990 
     95 H95        24.3303   24.5350   -1.8151 H         1 UNK         0.0690 
     96 H96        23.9394   24.9505   -4.2385 H         1 UNK         0.0788 
     97 H97        24.4919   26.6171   -4.0632 H         1 UNK         0.0788 
     98 H98        23.0215   26.0833   -3.2613 H         1 UNK         0.0788 
     99 H99        26.5200   25.2976   -3.5925 H         1 UNK         0.2993 
    100 H100       28.3887   22.8602   -2.8930 H         1 UNK         0.0949 
    101 H101       28.7695   25.8601   -3.4436 H         1 UNK         0.0767 
    102 H102       29.8177   24.5817   -4.0404 H         1 UNK         0.0767 
    103 H103       28.1544   24.6539   -4.5754 H         1 UNK         0.0767 
    104 H104       29.9074   23.0847   -1.2956 H         1 UNK         0.3013 
    105 H105       27.1315   27.4757    4.9699 H         1 UNK         0.3121 
    106 H106       29.3954   29.0818    5.6111 H         1 UNK         0.0774 
    107 H107       26.6044   28.9455    6.8779 H         1 UNK         0.0815 
    108 H108       27.9937   27.9497    7.3215 H         1 UNK         0.0815 
    109 H109       28.0232   29.6791    7.6113 H         1 UNK         0.0815 
    110 H110       26.8152   29.8547    3.4913 H         1 UNK         0.2987 
    111 H111       26.7695   32.7254    3.9793 H         1 UNK         0.0949 
    112 H112       24.8719   31.4929    2.8629 H         1 UNK         0.0806 
    113 H113       25.4925   32.8153    1.8871 H         1 UNK         0.0806 
    114 H114       25.9205   31.1627    1.4839 H         1 UNK         0.0806 
    115 H115       28.9937   30.5451    2.4388 H         1 UNK         0.3010 
    116 H116       30.3717   32.7328    0.9501 H         1 UNK         0.0829 
    117 H117       31.7417   30.7835    0.0605 H         1 UNK         0.0813 
    118 H118       30.6410   29.6831    0.8853 H         1 UNK         0.0813 
    119 H119       30.0491   30.7241   -0.4037 H         1 UNK         0.0813 
    120 H120       32.5220   33.2075    1.4799 H         1 UNK         0.3038 
    121 H121       33.2164   33.0079    4.2775 H         1 UNK         0.0769 
    122 H122       34.7639   34.1383    1.8759 H         1 UNK         0.0811 
    123 H123       33.6841   35.0548    2.9280 H         1 UNK         0.0811 
    124 H124       35.1782   34.3900    3.5649 H         1 UNK         0.0811 
    125 H125       35.0501   32.0768    5.1775 H         1 UNK         0.3204 
    126 H126       36.5201   30.4990    5.7016 H         1 UNK         0.0748 
    127 H127       37.3899   30.6833    2.7672 H         1 UNK         0.0771 
    128 H128       37.9536   31.7182    4.0776 H         1 UNK         0.0771 
    129 H129       38.3345   30.0037    4.0835 H         1 UNK         0.0771 
    130 H130       34.3640   29.3038    5.8866 H         1 UNK         0.2980 
    131 H131       33.5687   27.3917    4.0626 H         1 UNK         0.0545 
    132 H132       34.0675   25.2638    3.5708 H         1 UNK         0.3459 
    133 H133       35.2943   24.3343    4.4207 H         1 UNK         0.3459 
    134 H134       32.4439   28.3600    6.3375 H         1 UNK         0.0616 
    135 H135       32.9753   26.8406    6.9935 H         1 UNK         0.0616 
    136 H136       30.9143   24.7822    6.8060 H         1 UNK         0.0634 
    137 H137       32.4160   24.5733    5.9371 H         1 UNK         0.0634 
@<TRIPOS>BOND
     1    1    2 1    
     2    1   72 1    
     3    1   73 1    
     4    1   74 1    
     5    2    3 2    
     6    2    4 am   BACKBONE|DICT|INTERRES
     7    4    5 1    
     8    4   75 1    
     9    5    6 1    
    10    5   35 1    
    11    5   76 1    
    12    6    7 1    
    13    6   77 1    
    14    6   78 1    
    15    7    8 1    
    16    8    9 1    
    17    8   79 1    
    18    8   80 1    
    19    9   10 ar   
    20    9   14 ar   
    21   10   11 ar   
    22   10   81 1    
    23   11   12 ar   
    24   11   71 1    
    25   12   13 ar   
    26   12   82 1    
    27   13   14 ar   
    28   13   15 1    
    29   14   83 1    
    30   15   16 1    
    31   15   84 1    
    32   15   85 1    
    33   16   17 1    
    34   17   18 1    
    35   17   86 1    
    36   17   87 1    
    37   18   19 1    
    38   18   37 1    
    39   18   88 1    
    40   19   20 am   BACKBONE|DICT|INTERRES
    41   19   89 1    
    42   20   21 2    
    43   20   22 1    
    44   22   23 1    
    45   22   24 1    
    46   22   90 1    
    47   23   91 1    
    48   23   92 1    
    49   23   93 1    
    50   24   25 am   BACKBONE|DICT|INTERRES
    51   24   94 1    
    52   25   26 2    
    53   25   27 1    
    54   27   28 1    
    55   27   29 1    
    56   27   95 1    
    57   28   96 1    
    58   28   97 1    
    59   28   98 1    
    60   29   30 am   BACKBONE|DICT|INTERRES
    61   29   99 1    
    62   30   31 2    
    63   30   32 1    
    64   32   33 1    
    65   32   34 1    
    66   32  100 1    
    67   33  101 1    
    68   33  102 1    
    69   33  103 1    
    70   34   35 am   BACKBONE|DICT|INTERRES
    71   34  104 1    
    72   35   36 2    
    73   37   38 2    
    74   37   39 am   BACKBONE|DICT|INTERRES
    75   39   40 1    
    76   39  105 1    
    77   40   41 1    
    78   40   42 1    
    79   40  106 1    
    80   41  107 1    
    81   41  108 1    
    82   41  109 1    
    83   42   43 2    
    84   42   44 am   BACKBONE|DICT|INTERRES
    85   44   45 1    
    86   44  110 1    
    87   45   46 1    
    88   45   47 1    
    89   45  111 1    
    90   46  112 1    
    91   46  113 1    
    92   46  114 1    
    93   47   48 2    
    94   47   49 am   BACKBONE|DICT|INTERRES
    95   49   50 1    
    96   49  115 1    
    97   50   51 1    
    98   50   52 1    
    99   50  116 1    
   100   51  117 1    
   101   51  118 1    
   102   51  119 1    
   103   52   53 2    
   104   52   54 am   BACKBONE|DICT|INTERRES
   105   54   55 1    
   106   54  120 1    
   107   55   56 1    
   108   55   57 1    
   109   55  121 1    
   110   56  122 1    
   111   56  123 1    
   112   56  124 1    
   113   57   58 2    
   114   57   59 am   BACKBONE|DICT|INTERRES
   115   59   60 1    
   116   59  125 1    
   117   60   61 1    
   118   60   62 1    
   119   60  126 1    
   120   61  127 1    
   121   61  128 1    
   122   61  129 1    
   123   62   63 2    
   124   62   64 am   BACKBONE|DICT|INTERRES
   125   64   65 1    
   126   64  130 1    
   127   65   66 1    
   128   65   69 1    
   129   65  131 1    
   130   66   67 am   BACKBONE|DICT|INTERRES
   131   66   68 2    
   132   67  132 1    
   133   67  133 1    
   134   69   70 1    
   135   69  134 1    
   136   69  135 1    
   137   70   71 1    
   138   71  136 1    
   139   71  137 1    
@<TRIPOS>SUBSTRUCTURE
     1 UNK         1 GROUP             0       ****    0 ROOT    
