@<TRIPOS>MOLECULE
3R136
137   139    1
SMALL
USER_CHARGES


@<TRIPOS>ATOM
      1 CA         30.7834   18.2712    2.2895 C.3       0 UNK        -0.1979 
      2 C          29.9226   19.5046    2.0569 C.2       0 UNK         0.4864 
      3 O          28.7067   19.3757    1.9040 O.2       0 UNK        -0.5359 
      4 N          30.5494   20.6896    2.0323 N.am      1 UNK        -0.4318 
      5 CA         29.9312   22.0041    1.8066 C.3       1 UNK         0.0824 
      6 C6         28.9583   22.4406    2.9456 C.3       12 UNK        -0.0944 
      7 S7         29.7536   22.4549    4.5896 S.3       12 UNK        -0.2672 
      8 C8         30.1136   24.2264    4.8197 C.3       12 UNK         0.0333 
      9 C9         31.1161   24.7310    3.7928 C.ar      12 UNK        -0.0807 
     10 C10        32.4669   24.3992    3.9151 C.ar      12 UNK        -0.0894 
     11 C11        33.3917   24.8346    2.9634 C.ar      12 UNK        -0.0804 
     12 C12        32.9534   25.6076    1.8840 C.ar      12 UNK        -0.0824 
     13 C13        31.6022   25.9421    1.7381 C.ar      12 UNK        -0.0762 
     14 C14        30.6900   25.5044    2.7089 C.ar      12 UNK        -0.0782 
     15 C15        31.1931   26.7777    0.5215 C.3       12 UNK         0.0230 
     16 S16        29.3981   26.8839    0.1925 S.3       12 UNK        -0.2608 
     17 C17        28.8831   28.3009    1.2198 C.3       12 UNK        -0.0989 
     18 CA         27.7625   29.1370    0.5419 C.3       5 UNK         0.0716 
     19 N          26.4647   28.4645    0.5529 N.am      5 UNK        -0.4135 
     20 C          25.9179   27.7933   -0.4636 C.2       4 UNK         0.5031 
     21 O          26.4760   27.5809   -1.5434 O.2       4 UNK        -0.5229 
     22 CA         24.4844   27.2942   -0.2560 C.3       4 UNK         0.0329 
     23 CB         23.4617   28.3004   -0.8163 C.3       4 UNK        -0.2001 
     24 N          24.3616   26.0074   -0.9295 N.am      4 UNK        -0.4303 
     25 C          23.4401   25.0707   -0.6791 C.2       3 UNK         0.5044 
     26 O          22.4868   25.2288    0.0847 O.2       3 UNK        -0.5152 
     27 CA         23.6328   23.7091   -1.3761 C.3       3 UNK         0.0319 
     28 CB         22.9110   23.6907   -2.7333 C.3       3 UNK        -0.2001 
     29 N          25.0424   23.3409   -1.5664 N.am      3 UNK        -0.4354 
     30 C          25.9201   23.1506   -0.5706 C.2       2 UNK         0.4964 
     31 O          25.6239   23.2189    0.6266 O.2       2 UNK        -0.5047 
     32 CA         27.3723   22.8603   -0.9766 C.3       2 UNK         0.0288 
     33 CB         27.9574   23.9906   -1.8482 C.3       2 UNK        -0.2113 
     34 N          28.1501   22.7100    0.2492 N.am      2 UNK        -0.4145 
     35 C          29.3301   22.0963    0.3821 C.2       1 UNK         0.5006 
     36 O          29.9557   21.6202   -0.5696 O.2       1 UNK        -0.5103 
     37 C          27.5623   30.4681    1.2806 C.2       5 UNK         0.5055 
     38 O          26.7979   30.5161    2.2496 O.2       5 UNK        -0.5220 
     39 N          28.2646   31.5140    0.8291 N.am      6 UNK        -0.4450 
     40 CA         28.3579   32.8027    1.5190 C.3       6 UNK         0.0367 
     41 CB         28.9468   33.8436    0.5525 C.3       6 UNK        -0.1929 
     42 C          29.2428   32.6838    2.7691 C.2       6 UNK         0.5070 
     43 O          30.1200   31.8193    2.8089 O.2       6 UNK        -0.5237 
     44 N          29.0557   33.5864    3.7400 N.am      7 UNK        -0.4739 
     45 CA         29.7994   33.6127    5.0089 C.3       7 UNK         0.0276 
     46 CB         29.2376   34.7295    5.9034 C.3       7 UNK        -0.1927 
     47 C          31.3266   33.7616    4.8571 C.2       7 UNK         0.5013 
     48 O          32.0670   33.2711    5.7089 O.2       7 UNK        -0.5193 
     49 N          31.7658   34.4142    3.7723 N.am      8 UNK        -0.4253 
     50 CA         33.1746   34.5457    3.3945 C.3       8 UNK         0.0242 
     51 CB         33.3375   35.7919    2.5081 C.3       8 UNK        -0.2000 
     52 C          33.7311   33.3024    2.6731 C.2       8 UNK         0.4948 
     53 O          34.9504   33.1296    2.6480 O.2       8 UNK        -0.5275 
     54 N          32.8526   32.4811    2.0806 N.am      9 UNK        -0.4246 
     55 CA         33.2112   31.2746    1.3313 C.3       9 UNK         0.0261 
     56 CB         32.2692   31.1246    0.1242 C.3       9 UNK        -0.1959 
     57 C          33.1516   30.0165    2.2091 C.2       9 UNK         0.5033 
     58 O          33.9767   29.1211    2.0264 O.2       9 UNK        -0.5390 
     59 N          32.1715   29.9605    3.1218 N.am      10 UNK        -0.4215 
     60 CA         31.9437   28.8612    4.0571 C.3       10 UNK         0.0240 
     61 CB         30.6313   29.1070    4.8187 C.3       10 UNK        -0.1982 
     62 C          33.1170   28.6705    5.0301 C.2       10 UNK         0.4970 
     63 O          33.5707   29.6431    5.6368 O.2       10 UNK        -0.4916 
     64 N          33.5674   27.4194    5.1700 N.am      11 UNK        -0.4279 
     65 CA         34.6922   27.0301    6.0356 C.3       11 UNK         0.1003 
     66 C          34.3563   26.9827    7.5551 C.2       11 UNK         0.5709 
     67 N          33.0974   27.0852    7.9655 N.am      11 UNK        -0.7358 
     68 O          35.2593   26.8576    8.3791 O.2       11 UNK        -0.4999 
     69 C69        35.3482   25.7034    5.5695 C.3       12 UNK        -0.0954 
     70 S70        35.8795   25.7469    3.8227 S.3       12 UNK        -0.2268 
     71 C71        34.8573   24.4375    3.0774 C.3       12 UNK         0.0203 
     72 H72        31.8355   18.5254    2.4173 H         1 UNK         0.0888 
     73 H73        30.4512   17.7459    3.1846 H         1 UNK         0.0888 
     74 H74        30.6995   17.5902    1.4430 H         1 UNK         0.0888 
     75 H75        31.5529   20.7101    2.1439 H         1 UNK         0.3017 
     76 H76        30.7595   22.7136    1.7988 H         1 UNK         0.0873 
     77 H77        28.5547   23.4368    2.7591 H         1 UNK         0.0745 
     78 H78        28.0981   21.7709    2.9951 H         1 UNK         0.0745 
     79 H79        30.5150   24.3780    5.8228 H         1 UNK         0.0705 
     80 H80        29.1843   24.7965    4.7739 H         1 UNK         0.0705 
     81 H81        32.7907   23.7827    4.7428 H         1 UNK         0.1334 
     82 H82        33.6710   25.9461    1.1484 H         1 UNK         0.1417 
     83 H83        29.6414   25.7486    2.6263 H         1 UNK         0.1562 
     84 H84        31.6537   26.3378   -0.3642 H         1 UNK         0.0748 
     85 H85        31.6140   27.7795    0.6128 H         1 UNK         0.0748 
     86 H86        29.7587   28.9243    1.4125 H         1 UNK         0.0940 
     87 H87        28.5560   27.9335    2.1940 H         1 UNK         0.0940 
     88 H88        28.0496   29.3640   -0.4875 H         1 UNK         0.0703 
     89 H89        25.9160   28.6565    1.3816 H         1 UNK         0.3081 
     90 H90        24.3100   27.1506    0.8127 H         1 UNK         0.0719 
     91 H91        23.5933   28.4508   -1.8886 H         1 UNK         0.0809 
     92 H92        22.4380   27.9653   -0.6490 H         1 UNK         0.0809 
     93 H93        23.5654   29.2732   -0.3339 H         1 UNK         0.0809 
     94 H94        25.1218   25.8001   -1.5653 H         1 UNK         0.2990 
     95 H95        23.1771   22.9491   -0.7377 H         1 UNK         0.0690 
     96 H96        22.9606   22.7051   -3.1967 H         1 UNK         0.0788 
     97 H97        23.3396   24.4128   -3.4295 H         1 UNK         0.0788 
     98 H98        21.8550   23.9385   -2.6161 H         1 UNK         0.0788 
     99 H99        25.3635   23.2600   -2.5207 H         1 UNK         0.2993 
    100 H100       27.3926   21.9170   -1.5265 H         1 UNK         0.0949 
    101 H101       27.4676   24.0367   -2.8211 H         1 UNK         0.0767 
    102 H102       27.8327   24.9650   -1.3756 H         1 UNK         0.0767 
    103 H103       29.0215   23.8464   -2.0356 H         1 UNK         0.0767 
    104 H104       27.6495   23.0203    1.0735 H         1 UNK         0.3013 
    105 H105       28.8776   31.3842    0.0380 H         1 UNK         0.3121 
    106 H106       27.3565   33.1177    1.8208 H         1 UNK         0.0774 
    107 H107       28.9971   34.8288    1.0179 H         1 UNK         0.0815 
    108 H108       29.9576   33.5801    0.2375 H         1 UNK         0.0815 
    109 H109       28.3330   33.9444   -0.3428 H         1 UNK         0.0815 
    110 H110       28.3292   34.2798    3.6274 H         1 UNK         0.2987 
    111 H111       29.6240   32.6561    5.5066 H         1 UNK         0.0949 
    112 H112       29.3520   35.7118    5.4435 H         1 UNK         0.0806 
    113 H113       28.1788   34.5766    6.1132 H         1 UNK         0.0806 
    114 H114       29.7542   34.7575    6.8641 H         1 UNK         0.0806 
    115 H115       31.0808   34.8040    3.1414 H         1 UNK         0.3010 
    116 H116       33.7695   34.6926    4.2988 H         1 UNK         0.0829 
    117 H117       33.0106   36.6935    3.0266 H         1 UNK         0.0813 
    118 H118       34.3825   35.9405    2.2322 H         1 UNK         0.0813 
    119 H119       32.7655   35.7089    1.5830 H         1 UNK         0.0813 
    120 H120       31.8625   32.6417    2.2220 H         1 UNK         0.3038 
    121 H121       34.2305   31.3678    0.9501 H         1 UNK         0.0769 
    122 H122       32.5370   30.2506   -0.4711 H         1 UNK         0.0811 
    123 H123       32.3252   31.9930   -0.5323 H         1 UNK         0.0811 
    124 H124       31.2309   31.0019    0.4317 H         1 UNK         0.0811 
    125 H125       31.4996   30.7252    3.1550 H         1 UNK         0.3204 
    126 H126       31.8294   27.9557    3.4657 H         1 UNK         0.0748 
    127 H127       30.4091   28.2802    5.4943 H         1 UNK         0.0771 
    128 H128       30.6804   30.0182    5.4168 H         1 UNK         0.0771 
    129 H129       29.7870   29.2037    4.1357 H         1 UNK         0.0771 
    130 H130       33.1619   26.6787    4.6153 H         1 UNK         0.2980 
    131 H131       35.4528   27.8069    5.9348 H         1 UNK         0.0545 
    132 H132       32.8972   27.0574    8.9527 H         1 UNK         0.3459 
    133 H133       32.3500   27.1951    7.3006 H         1 UNK         0.3459 
    134 H134       36.2362   25.4916    6.1679 H         1 UNK         0.0616 
    135 H135       34.6727   24.8634    5.7336 H         1 UNK         0.0616 
    136 H136       35.2494   24.2151    2.0839 H         1 UNK         0.0634 
    137 H137       34.9651   23.5185    3.6557 H         1 UNK         0.0634 
@<TRIPOS>BOND
     1    1    2 1    
     2    1   72 1    
     3    1   73 1    
     4    1   74 1    
     5    2    3 2    
     6    2    4 am   BACKBONE|DICT|INTERRES
     7    4    5 1    
     8    4   75 1    
     9    5    6 1    
    10    5   35 1    
    11    5   76 1    
    12    6    7 1    
    13    6   77 1    
    14    6   78 1    
    15    7    8 1    
    16    8    9 1    
    17    8   79 1    
    18    8   80 1    
    19    9   10 ar   
    20    9   14 ar   
    21   10   11 ar   
    22   10   81 1    
    23   11   12 ar   
    24   11   71 1    
    25   12   13 ar   
    26   12   82 1    
    27   13   14 ar   
    28   13   15 1    
    29   14   83 1    
    30   15   16 1    
    31   15   84 1    
    32   15   85 1    
    33   16   17 1    
    34   17   18 1    
    35   17   86 1    
    36   17   87 1    
    37   18   19 1    
    38   18   37 1    
    39   18   88 1    
    40   19   20 am   BACKBONE|DICT|INTERRES
    41   19   89 1    
    42   20   21 2    
    43   20   22 1    
    44   22   23 1    
    45   22   24 1    
    46   22   90 1    
    47   23   91 1    
    48   23   92 1    
    49   23   93 1    
    50   24   25 am   BACKBONE|DICT|INTERRES
    51   24   94 1    
    52   25   26 2    
    53   25   27 1    
    54   27   28 1    
    55   27   29 1    
    56   27   95 1    
    57   28   96 1    
    58   28   97 1    
    59   28   98 1    
    60   29   30 am   BACKBONE|DICT|INTERRES
    61   29   99 1    
    62   30   31 2    
    63   30   32 1    
    64   32   33 1    
    65   32   34 1    
    66   32  100 1    
    67   33  101 1    
    68   33  102 1    
    69   33  103 1    
    70   34   35 am   BACKBONE|DICT|INTERRES
    71   34  104 1    
    72   35   36 2    
    73   37   38 2    
    74   37   39 am   BACKBONE|DICT|INTERRES
    75   39   40 1    
    76   39  105 1    
    77   40   41 1    
    78   40   42 1    
    79   40  106 1    
    80   41  107 1    
    81   41  108 1    
    82   41  109 1    
    83   42   43 2    
    84   42   44 am   BACKBONE|DICT|INTERRES
    85   44   45 1    
    86   44  110 1    
    87   45   46 1    
    88   45   47 1    
    89   45  111 1    
    90   46  112 1    
    91   46  113 1    
    92   46  114 1    
    93   47   48 2    
    94   47   49 am   BACKBONE|DICT|INTERRES
    95   49   50 1    
    96   49  115 1    
    97   50   51 1    
    98   50   52 1    
    99   50  116 1    
   100   51  117 1    
   101   51  118 1    
   102   51  119 1    
   103   52   53 2    
   104   52   54 am   BACKBONE|DICT|INTERRES
   105   54   55 1    
   106   54  120 1    
   107   55   56 1    
   108   55   57 1    
   109   55  121 1    
   110   56  122 1    
   111   56  123 1    
   112   56  124 1    
   113   57   58 2    
   114   57   59 am   BACKBONE|DICT|INTERRES
   115   59   60 1    
   116   59  125 1    
   117   60   61 1    
   118   60   62 1    
   119   60  126 1    
   120   61  127 1    
   121   61  128 1    
   122   61  129 1    
   123   62   63 2    
   124   62   64 am   BACKBONE|DICT|INTERRES
   125   64   65 1    
   126   64  130 1    
   127   65   66 1    
   128   65   69 1    
   129   65  131 1    
   130   66   67 am   BACKBONE|DICT|INTERRES
   131   66   68 2    
   132   67  132 1    
   133   67  133 1    
   134   69   70 1    
   135   69  134 1    
   136   69  135 1    
   137   70   71 1    
   138   71  136 1    
   139   71  137 1    
@<TRIPOS>SUBSTRUCTURE
     1 UNK         1 GROUP             0       ****    0 ROOT    
