@<TRIPOS>MOLECULE
3R136
137   139    1
SMALL
USER_CHARGES


@<TRIPOS>ATOM
      1 CA         29.5896   27.9476    2.3829 C.3       0 UNK        -0.1979 
      2 C          28.9712   26.7301    3.0540 C.2       0 UNK         0.4864 
      3 O          27.9188   26.8507    3.6817 O.2       0 UNK        -0.5359 
      4 N          29.6275   25.5666    2.9397 N.am      1 UNK        -0.4318 
      5 CA         29.2129   24.2997    3.5559 C.3       1 UNK         0.0824 
      6 C6         30.2987   23.2012    3.4447 C.3       12 UNK        -0.0944 
      7 S7         31.8827   23.6813    4.2072 S.3       12 UNK        -0.2672 
      8 C8         33.0290   23.6042    2.7957 C.3       12 UNK         0.0333 
      9 C9         32.9820   24.8599    1.9354 C.ar      12 UNK        -0.0807 
     10 C10        33.8192   25.9387    2.2390 C.ar      12 UNK        -0.0894 
     11 C11        33.8488   27.0699    1.4183 C.ar      12 UNK        -0.0804 
     12 C12        33.0190   27.1198    0.2946 C.ar      12 UNK        -0.0824 
     13 C13        32.1652   26.0560   -0.0159 C.ar      12 UNK        -0.0762 
     14 C14        32.1550   24.9245    0.8074 C.ar      12 UNK        -0.0782 
     15 C15        31.3172   26.1051   -1.2828 C.3       12 UNK         0.0230 
     16 S16        30.2598   27.5909   -1.3608 S.3       12 UNK        -0.2608 
     17 C17        28.5840   26.9293   -1.0660 C.3       12 UNK        -0.0989 
     18 CA         27.4949   27.7555   -1.8003 C.3       5 UNK         0.0716 
     19 N          26.2705   26.9741   -1.9730 N.am      5 UNK        -0.4135 
     20 C          25.4131   27.1128   -2.9943 C.2       4 UNK         0.5031 
     21 O          25.5908   27.8975   -3.9277 O.2       4 UNK        -0.5229 
     22 CA         24.1582   26.2167   -3.0150 C.3       4 UNK         0.0329 
     23 CB         24.2987   25.1264   -4.0908 C.3       4 UNK        -0.2001 
     24 N          23.8793   25.5744   -1.7299 N.am      4 UNK        -0.4303 
     25 C          23.2804   26.1686   -0.6888 C.2       3 UNK         0.5044 
     26 O          22.8052   27.3037   -0.7277 O.2       3 UNK        -0.5152 
     27 CA         23.2118   25.3647    0.6256 C.3       3 UNK         0.0319 
     28 CB         21.8386   24.6887    0.7701 C.3       3 UNK        -0.2001 
     29 N          24.2674   24.3519    0.7742 N.am      3 UNK        -0.4354 
     30 C          25.5800   24.6186    0.8149 C.2       2 UNK         0.4964 
     31 O          26.0527   25.7475    0.6784 O.2       2 UNK        -0.5047 
     32 CA         26.5274   23.4204    0.9407 C.3       2 UNK         0.0288 
     33 CB         26.9212   22.9076   -0.4551 C.3       2 UNK        -0.2113 
     34 N          27.7376   23.8182    1.6578 N.am      2 UNK        -0.4145 
     35 C          27.8813   23.7687    2.9887 C.2       1 UNK         0.5006 
     36 O          27.0295   23.3152    3.7558 O.2       1 UNK        -0.5103 
     37 C          27.1735   29.0751   -1.0681 C.2       5 UNK         0.5055 
     38 O          26.2094   29.1438   -0.3015 O.2       5 UNK        -0.5220 
     39 N          28.0069   30.0923   -1.3027 N.am      6 UNK        -0.4450 
     40 CA         27.9619   31.3928   -0.6457 C.3       6 UNK         0.0367 
     41 CB         27.3302   32.4310   -1.5913 C.3       6 UNK        -0.1929 
     42 C          29.4027   31.7448   -0.2671 C.2       6 UNK         0.5070 
     43 O          30.1587   32.2209   -1.1158 O.2       6 UNK        -0.5237 
     44 N          29.7709   31.4515    0.9821 N.am      7 UNK        -0.4739 
     45 CA         31.0961   31.6675    1.5574 C.3       7 UNK         0.0276 
     46 CB         32.0724   30.5803    1.0676 C.3       7 UNK        -0.1927 
     47 C          30.9686   31.6826    3.0881 C.2       7 UNK         0.5013 
     48 O          29.8608   31.5231    3.6114 O.2       7 UNK        -0.5193 
     49 N          32.0966   31.8730    3.7842 N.am      8 UNK        -0.4253 
     50 CA         32.2068   31.9933    5.2434 C.3       8 UNK         0.0242 
     51 CB         33.5598   32.6516    5.5764 C.3       8 UNK        -0.2000 
     52 C          32.0020   30.6620    6.0004 C.2       8 UNK         0.4948 
     53 O          32.8700   30.2576    6.7783 O.2       8 UNK        -0.5275 
     54 N          30.8524   30.0121    5.7704 N.am      9 UNK        -0.4246 
     55 CA         30.4156   28.7346    6.3439 C.3       9 UNK         0.0261 
     56 CB         30.0429   28.9124    7.8340 C.3       9 UNK        -0.1959 
     57 C          31.4450   27.6205    6.0753 C.2       9 UNK         0.5033 
     58 O          31.6306   27.2508    4.9182 O.2       9 UNK        -0.5390 
     59 N          32.1097   27.1284    7.1290 N.am      10 UNK        -0.4215 
     60 CA         33.1839   26.1353    7.0502 C.3       10 UNK         0.0240 
     61 CB         33.4742   25.6009    8.4627 C.3       10 UNK        -0.1982 
     62 C          34.4785   26.6562    6.3937 C.2       10 UNK         0.4970 
     63 O          35.3001   25.8352    5.9820 O.2       10 UNK        -0.4916 
     64 N          34.6444   27.9852    6.3197 N.am      11 UNK        -0.4279 
     65 CA         35.8148   28.6911    5.7768 C.3       11 UNK         0.1003 
     66 C          37.1188   28.4366    6.5955 C.2       11 UNK         0.5709 
     67 N          38.2913   28.7178    6.0410 N.am      11 UNK        -0.7358 
     68 O          37.0829   28.0387    7.7593 O.2       11 UNK        -0.4999 
     69 C69        35.9767   28.4880    4.2410 C.3       12 UNK        -0.0954 
     70 S70        34.5091   29.0236    3.2998 S.3       12 UNK        -0.2268 
     71 C71        34.8180   28.2118    1.6993 C.3       12 UNK         0.0203 
     72 H72        29.9560   28.6425    3.1372 H         1 UNK         0.0888 
     73 H73        28.8510   28.4653    1.7720 H         1 UNK         0.0888 
     74 H74        30.4284   27.6710    1.7456 H         1 UNK         0.0888 
     75 H75        30.5388   25.5596    2.5014 H         1 UNK         0.3017 
     76 H76        29.0497   24.5026    4.6167 H         1 UNK         0.0873 
     77 H77        29.9660   22.2917    3.9493 H         1 UNK         0.0745 
     78 H78        30.4600   22.9198    2.4030 H         1 UNK         0.0745 
     79 H79        34.0395   23.4713    3.1854 H         1 UNK         0.0705 
     80 H80        32.8249   22.7164    2.1953 H         1 UNK         0.0705 
     81 H81        34.4636   25.8911    3.1066 H         1 UNK         0.1334 
     82 H82        33.0479   27.9830   -0.3563 H         1 UNK         0.1417 
     83 H83        31.5277   24.0810    0.5534 H         1 UNK         0.1562 
     84 H84        30.7167   25.2009   -1.3875 H         1 UNK         0.0748 
     85 H85        31.9886   26.1189   -2.1423 H         1 UNK         0.0748 
     86 H86        28.3899   26.8689    0.0051 H         1 UNK         0.0940 
     87 H87        28.5580   25.9021   -1.4312 H         1 UNK         0.0940 
     88 H88        27.8737   28.0052   -2.7944 H         1 UNK         0.0703 
     89 H89        26.0058   26.4076   -1.1738 H         1 UNK         0.3081 
     90 H90        23.3098   26.8505   -3.2824 H         1 UNK         0.0719 
     91 H91        25.1353   24.4579   -3.8829 H         1 UNK         0.0809 
     92 H92        23.3945   24.5218   -4.1641 H         1 UNK         0.0809 
     93 H93        24.4709   25.5670   -5.0739 H         1 UNK         0.0809 
     94 H94        24.2174   24.6311   -1.6089 H         1 UNK         0.2990 
     95 H95        23.3280   26.0793    1.4433 H         1 UNK         0.0690 
     96 H96        21.7358   24.2000    1.7392 H         1 UNK         0.0788 
     97 H97        21.6735   23.9393   -0.0051 H         1 UNK         0.0788 
     98 H98        21.0330   25.4205    0.6924 H         1 UNK         0.0788 
     99 H99        23.9608   23.3937    0.8686 H         1 UNK         0.2993 
    100 H100       26.0236   22.6172    1.4834 H         1 UNK         0.0949 
    101 H101       27.4038   23.6817   -1.0531 H         1 UNK         0.0767 
    102 H102       27.6071   22.0629   -0.3862 H         1 UNK         0.0767 
    103 H103       26.0458   22.5658   -1.0091 H         1 UNK         0.0767 
    104 H104       28.4582   24.2677    1.1144 H         1 UNK         0.3013 
    105 H105       28.8141   29.9351   -1.8929 H         1 UNK         0.3121 
    106 H106       27.3641   31.3468    0.2676 H         1 UNK         0.0774 
    107 H107       26.2948   32.1769   -1.8189 H         1 UNK         0.0815 
    108 H108       27.3298   33.4220   -1.1360 H         1 UNK         0.0815 
    109 H109       27.8706   32.5043   -2.5358 H         1 UNK         0.0815 
    110 H110       29.0871   31.1142    1.6493 H         1 UNK         0.2987 
    111 H111       31.4570   32.6492    1.2426 H         1 UNK         0.0949 
    112 H112       31.8431   29.6068    1.5002 H         1 UNK         0.0806 
    113 H113       32.0538   30.4741   -0.0170 H         1 UNK         0.0806 
    114 H114       33.0979   30.8272    1.3403 H         1 UNK         0.0806 
    115 H115       32.9649   31.9416    3.2735 H         1 UNK         0.3010 
    116 H116       31.4197   32.6687    5.5855 H         1 UNK         0.0829 
    117 H117       33.6581   33.6256    5.0969 H         1 UNK         0.0813 
    118 H118       33.6647   32.8116    6.6505 H         1 UNK         0.0813 
    119 H119       34.3980   32.0314    5.2555 H         1 UNK         0.0813 
    120 H120       30.2375   30.4224    5.0710 H         1 UNK         0.3038 
    121 H121       29.5094   28.4464    5.8088 H         1 UNK         0.0769 
    122 H122       30.8837   29.2586    8.4362 H         1 UNK         0.0811 
    123 H123       29.6815   27.9780    8.2657 H         1 UNK         0.0811 
    124 H124       29.2414   29.6425    7.9470 H         1 UNK         0.0811 
    125 H125       31.9105   27.5142    8.0404 H         1 UNK         0.3204 
    126 H126       32.8263   25.3050    6.4401 H         1 UNK         0.0748 
    127 H127       34.2434   24.8277    8.4362 H         1 UNK         0.0771 
    128 H128       33.8289   26.3897    9.1274 H         1 UNK         0.0771 
    129 H129       32.5856   25.1550    8.9100 H         1 UNK         0.0771 
    130 H130       33.9084   28.5944    6.6631 H         1 UNK         0.2980 
    131 H131       35.5993   29.7472    5.9410 H         1 UNK         0.0545 
    132 H132       38.3528   29.0689    5.0987 H         1 UNK         0.3459 
    133 H133       39.1321   28.5738    6.5781 H         1 UNK         0.3459 
    134 H134       36.1916   27.4427    4.0152 H         1 UNK         0.0616 
    135 H135       36.8180   29.0658    3.8570 H         1 UNK         0.0616 
    136 H136       35.8392   27.8313    1.6560 H         1 UNK         0.0634 
    137 H137       34.7512   28.9705    0.9185 H         1 UNK         0.0634 
@<TRIPOS>BOND
     1    1    2 1    
     2    1   72 1    
     3    1   73 1    
     4    1   74 1    
     5    2    3 2    
     6    2    4 am   BACKBONE|DICT|INTERRES
     7    4    5 1    
     8    4   75 1    
     9    5    6 1    
    10    5   35 1    
    11    5   76 1    
    12    6    7 1    
    13    6   77 1    
    14    6   78 1    
    15    7    8 1    
    16    8    9 1    
    17    8   79 1    
    18    8   80 1    
    19    9   10 ar   
    20    9   14 ar   
    21   10   11 ar   
    22   10   81 1    
    23   11   12 ar   
    24   11   71 1    
    25   12   13 ar   
    26   12   82 1    
    27   13   14 ar   
    28   13   15 1    
    29   14   83 1    
    30   15   16 1    
    31   15   84 1    
    32   15   85 1    
    33   16   17 1    
    34   17   18 1    
    35   17   86 1    
    36   17   87 1    
    37   18   19 1    
    38   18   37 1    
    39   18   88 1    
    40   19   20 am   BACKBONE|DICT|INTERRES
    41   19   89 1    
    42   20   21 2    
    43   20   22 1    
    44   22   23 1    
    45   22   24 1    
    46   22   90 1    
    47   23   91 1    
    48   23   92 1    
    49   23   93 1    
    50   24   25 am   BACKBONE|DICT|INTERRES
    51   24   94 1    
    52   25   26 2    
    53   25   27 1    
    54   27   28 1    
    55   27   29 1    
    56   27   95 1    
    57   28   96 1    
    58   28   97 1    
    59   28   98 1    
    60   29   30 am   BACKBONE|DICT|INTERRES
    61   29   99 1    
    62   30   31 2    
    63   30   32 1    
    64   32   33 1    
    65   32   34 1    
    66   32  100 1    
    67   33  101 1    
    68   33  102 1    
    69   33  103 1    
    70   34   35 am   BACKBONE|DICT|INTERRES
    71   34  104 1    
    72   35   36 2    
    73   37   38 2    
    74   37   39 am   BACKBONE|DICT|INTERRES
    75   39   40 1    
    76   39  105 1    
    77   40   41 1    
    78   40   42 1    
    79   40  106 1    
    80   41  107 1    
    81   41  108 1    
    82   41  109 1    
    83   42   43 2    
    84   42   44 am   BACKBONE|DICT|INTERRES
    85   44   45 1    
    86   44  110 1    
    87   45   46 1    
    88   45   47 1    
    89   45  111 1    
    90   46  112 1    
    91   46  113 1    
    92   46  114 1    
    93   47   48 2    
    94   47   49 am   BACKBONE|DICT|INTERRES
    95   49   50 1    
    96   49  115 1    
    97   50   51 1    
    98   50   52 1    
    99   50  116 1    
   100   51  117 1    
   101   51  118 1    
   102   51  119 1    
   103   52   53 2    
   104   52   54 am   BACKBONE|DICT|INTERRES
   105   54   55 1    
   106   54  120 1    
   107   55   56 1    
   108   55   57 1    
   109   55  121 1    
   110   56  122 1    
   111   56  123 1    
   112   56  124 1    
   113   57   58 2    
   114   57   59 am   BACKBONE|DICT|INTERRES
   115   59   60 1    
   116   59  125 1    
   117   60   61 1    
   118   60   62 1    
   119   60  126 1    
   120   61  127 1    
   121   61  128 1    
   122   61  129 1    
   123   62   63 2    
   124   62   64 am   BACKBONE|DICT|INTERRES
   125   64   65 1    
   126   64  130 1    
   127   65   66 1    
   128   65   69 1    
   129   65  131 1    
   130   66   67 am   BACKBONE|DICT|INTERRES
   131   66   68 2    
   132   67  132 1    
   133   67  133 1    
   134   69   70 1    
   135   69  134 1    
   136   69  135 1    
   137   70   71 1    
   138   71  136 1    
   139   71  137 1    
@<TRIPOS>SUBSTRUCTURE
     1 UNK         1 GROUP             0       ****    0 ROOT    
