@<TRIPOS>MOLECULE
3R136
137   139    1
SMALL
USER_CHARGES


@<TRIPOS>ATOM
      1 CA         27.2706   26.5182    4.8145 C.3       0 UNK        -0.1979 
      2 C          27.7016   25.5947    3.6866 C.2       0 UNK         0.4864 
      3 O          27.5729   25.9557    2.5148 O.2       0 UNK        -0.5359 
      4 N          28.2184   24.4076    4.0396 N.am      1 UNK        -0.4318 
      5 CA         28.6517   23.3506    3.1180 C.3       1 UNK         0.0824 
      6 C6         29.8425   23.8111    2.2321 C.3       12 UNK        -0.0944 
      7 S7         30.8895   22.4365    1.6456 S.3       12 UNK        -0.2672 
      8 C8         32.4902   22.8122    2.4508 C.3       12 UNK         0.0333 
      9 C9         33.2836   23.9907    1.8720 C.ar      12 UNK        -0.0807 
     10 C10        34.6268   24.1271    2.2354 C.ar      12 UNK        -0.0894 
     11 C11        35.3993   25.1840    1.7457 C.ar      12 UNK        -0.0804 
     12 C12        34.8101   26.1321    0.9039 C.ar      12 UNK        -0.0824 
     13 C13        33.4705   26.0177    0.5191 C.ar      12 UNK        -0.0762 
     14 C14        32.7247   24.9335    0.9984 C.ar      12 UNK        -0.0782 
     15 C15        32.8906   27.0722   -0.4318 C.3       12 UNK         0.0230 
     16 S16        31.1020   26.9332   -0.8067 S.3       12 UNK        -0.2608 
     17 C17        30.3382   27.5266    0.7417 C.3       12 UNK        -0.0989 
     18 CA         29.1646   28.5021    0.4815 C.3       5 UNK         0.0716 
     19 N          28.0775   27.8415   -0.2448 N.am      5 UNK        -0.4135 
     20 C          27.4225   28.3678   -1.2865 C.2       4 UNK         0.5031 
     21 O          27.6237   29.5027   -1.7208 O.2       4 UNK        -0.5229 
     22 CA         26.3595   27.4874   -1.9685 C.3       4 UNK         0.0329 
     23 CB         26.9529   26.8091   -3.2138 C.3       4 UNK        -0.2001 
     24 N          25.7618   26.4599   -1.1103 N.am      4 UNK        -0.4303 
     25 C          25.0569   26.6812    0.0048 C.2       3 UNK         0.5044 
     26 O          24.9022   27.8014    0.4902 O.2       3 UNK        -0.5152 
     27 CA         24.4096   25.4673    0.7002 C.3       3 UNK         0.0319 
     28 CB         23.0032   25.2018    0.1310 C.3       3 UNK        -0.2001 
     29 N          25.2121   24.2341    0.7217 N.am      3 UNK        -0.4354 
     30 C          25.6397   23.4594   -0.2868 C.2       2 UNK         0.4964 
     31 O          25.4154   23.7030   -1.4737 O.2       2 UNK        -0.5047 
     32 CA         26.4934   22.2295    0.0983 C.3       2 UNK         0.0288 
     33 CB         27.1017   21.5227   -1.1280 C.3       2 UNK        -0.2113 
     34 N          27.5763   22.5785    1.0236 N.am      2 UNK        -0.4145 
     35 C          27.4345   22.8009    2.3370 C.2       1 UNK         0.5006 
     36 O          26.3653   22.6304    2.9299 O.2       1 UNK        -0.5103 
     37 C          28.6693   29.1793    1.7804 C.2       5 UNK         0.5055 
     38 O          29.4992   29.6742    2.5488 O.2       5 UNK        -0.5220 
     39 N          27.3448   29.2270    2.0071 N.am      6 UNK        -0.4450 
     40 CA         26.7065   29.8245    3.1874 C.3       6 UNK         0.0367 
     41 CB         25.1992   29.5291    3.1650 C.3       6 UNK        -0.1929 
     42 C          26.9514   31.3329    3.3644 C.2       6 UNK         0.5070 
     43 O          26.8382   31.8281    4.4861 O.2       6 UNK        -0.5237 
     44 N          27.3298   32.0374    2.2890 N.am      7 UNK        -0.4739 
     45 CA         27.7309   33.4497    2.2834 C.3       7 UNK         0.0276 
     46 CB         27.6003   33.9919    0.8475 C.3       7 UNK        -0.1927 
     47 C          29.1415   33.6758    2.8770 C.2       7 UNK         0.5013 
     48 O          29.9582   34.3732    2.2733 O.2       7 UNK        -0.5193 
     49 N          29.4017   33.0637    4.0419 N.am      8 UNK        -0.4253 
     50 CA         30.6369   33.0877    4.8366 C.3       8 UNK         0.0242 
     51 CB         30.8740   34.4988    5.4164 C.3       8 UNK        -0.2000 
     52 C          31.8840   32.5332    4.1140 C.2       8 UNK         0.4948 
     53 O          33.0034   32.8631    4.5111 O.2       8 UNK        -0.5275 
     54 N          31.6872   31.7019    3.0814 N.am      9 UNK        -0.4246 
     55 CA         32.7653   31.1149    2.2814 C.3       9 UNK         0.0261 
     56 CB         32.3354   31.0838    0.8056 C.3       9 UNK        -0.1959 
     57 C          33.1565   29.7075    2.7585 C.2       9 UNK         0.5033 
     58 O          34.2711   29.2735    2.4672 O.2       9 UNK        -0.5390 
     59 N          32.2384   29.0106    3.4445 N.am      10 UNK        -0.4215 
     60 CA         32.4045   27.6352    3.9156 C.3       10 UNK         0.0240 
     61 CB         31.0670   27.1194    4.4707 C.3       10 UNK        -0.1982 
     62 C          33.5131   27.5106    4.9694 C.2       10 UNK         0.4970 
     63 O          33.5308   28.2825    5.9308 O.2       10 UNK        -0.4916 
     64 N          34.3942   26.5250    4.7752 N.am      11 UNK        -0.4279 
     65 CA         35.5364   26.2395    5.6568 C.3       11 UNK         0.1003 
     66 C          35.1702   25.4898    6.9710 C.2       11 UNK         0.5709 
     67 N          33.9458   25.0058    7.1463 N.am      11 UNK        -0.7358 
     68 O          36.0136   25.3522    7.8540 O.2       11 UNK        -0.4999 
     69 C69        36.6753   25.5123    4.8960 C.3       12 UNK        -0.0954 
     70 S70        37.2415   26.4384    3.4277 S.3       12 UNK        -0.2268 
     71 C71        36.8839   25.2724    2.0769 C.3       12 UNK         0.0203 
     72 H72        27.2176   25.9954    5.7692 H         1 UNK         0.0888 
     73 H73        27.9801   27.3380    4.9155 H         1 UNK         0.0888 
     74 H74        26.2861   26.9337    4.6044 H         1 UNK         0.0888 
     75 H75        28.2613   24.1640    5.0193 H         1 UNK         0.3017 
     76 H76        28.9952   22.5326    3.7531 H         1 UNK         0.0873 
     77 H77        30.4731   24.4913    2.8066 H         1 UNK         0.0745 
     78 H78        29.5004   24.3949    1.3763 H         1 UNK         0.0745 
     79 H79        32.3200   22.9867    3.5142 H         1 UNK         0.0705 
     80 H80        33.1045   21.9129    2.3843 H         1 UNK         0.0705 
     81 H81        35.0794   23.3916    2.8869 H         1 UNK         0.1334 
     82 H82        35.4051   26.9560    0.5326 H         1 UNK         0.1417 
     83 H83        31.7029   24.8228    0.6808 H         1 UNK         0.1562 
     84 H84        33.4315   27.0070   -1.3767 H         1 UNK         0.0748 
     85 H85        33.0932   28.0677   -0.0344 H         1 UNK         0.0748 
     86 H86        31.1137   28.0157    1.3241 H         1 UNK         0.0940 
     87 H87        30.0074   26.6721    1.3312 H         1 UNK         0.0940 
     88 H88        29.5572   29.3150   -0.1320 H         1 UNK         0.0703 
     89 H89        27.8228   26.9179    0.0783 H         1 UNK         0.3081 
     90 H90        25.5531   28.1493   -2.2907 H         1 UNK         0.0719 
     91 H91        27.3783   27.5461   -3.8965 H         1 UNK         0.0809 
     92 H92        27.7486   26.1108   -2.9502 H         1 UNK         0.0809 
     93 H93        26.1922   26.2579   -3.7670 H         1 UNK         0.0809 
     94 H94        25.7974   25.4986   -1.4422 H         1 UNK         0.2990 
     95 H95        24.2908   25.7486    1.7479 H         1 UNK         0.0690 
     96 H96        22.3806   26.0950    0.1995 H         1 UNK         0.0788 
     97 H97        22.4955   24.4105    0.6824 H         1 UNK         0.0788 
     98 H98        23.0367   24.9106   -0.9194 H         1 UNK         0.0788 
     99 H99        25.4938   23.9350    1.6501 H         1 UNK         0.2993 
    100 H100       25.8235   21.5214    0.5913 H         1 UNK         0.0949 
    101 H101       27.6672   20.6376   -0.8355 H         1 UNK         0.0767 
    102 H102       27.7717   22.1812   -1.6824 H         1 UNK         0.0767 
    103 H103       26.3228   21.1928   -1.8170 H         1 UNK         0.0767 
    104 H104       28.4869   22.7369    0.6144 H         1 UNK         0.3013 
    105 H105       26.7229   28.7834    1.3411 H         1 UNK         0.3121 
    106 H106       27.1339   29.3415    4.0663 H         1 UNK         0.0774 
    107 H107       24.7061   29.9328    4.0504 H         1 UNK         0.0815 
    108 H108       24.7164   29.9702    2.2921 H         1 UNK         0.0815 
    109 H109       25.0038   28.4570    3.1487 H         1 UNK         0.0815 
    110 H110       27.4182   31.5416    1.4139 H         1 UNK         0.2987 
    111 H111       27.0342   34.0077    2.9130 H         1 UNK         0.0949 
    112 H112       27.8241   35.0589    0.8089 H         1 UNK         0.0806 
    113 H113       28.2851   33.4894    0.1631 H         1 UNK         0.0806 
    114 H114       26.5876   33.8637    0.4647 H         1 UNK         0.0806 
    115 H115       28.6361   32.5226    4.4361 H         1 UNK         0.3010 
    116 H116       30.4621   32.4139    5.6768 H         1 UNK         0.0829 
    117 H117       31.1181   35.2195    4.6352 H         1 UNK         0.0813 
    118 H118       29.9942   34.8635    5.9465 H         1 UNK         0.0813 
    119 H119       31.7002   34.4993    6.1285 H         1 UNK         0.0813 
    120 H120       30.7401   31.4351    2.8385 H         1 UNK         0.3038 
    121 H121       33.6586   31.7396    2.3496 H         1 UNK         0.0769 
    122 H122       31.4522   30.4660    0.6543 H         1 UNK         0.0811 
    123 H123       33.1291   30.6795    0.1759 H         1 UNK         0.0811 
    124 H124       32.1098   32.0854    0.4391 H         1 UNK         0.0811 
    125 H125       31.3279   29.4313    3.5843 H         1 UNK         0.3204 
    126 H126       32.6719   27.0254    3.0516 H         1 UNK         0.0748 
    127 H127       31.1483   26.0791    4.7883 H         1 UNK         0.0771 
    128 H128       30.7377   27.7010    5.3328 H         1 UNK         0.0771 
    129 H129       30.2815   27.1664    3.7182 H         1 UNK         0.0771 
    130 H130       34.3277   25.9555    3.9438 H         1 UNK         0.2980 
    131 H131       35.9393   27.2015    5.9799 H         1 UNK         0.0545 
    132 H132       33.7239   24.5275    8.0051 H         1 UNK         0.3459 
    133 H133       33.2442   25.1183    6.4340 H         1 UNK         0.3459 
    134 H134       36.3624   24.5082    4.6074 H         1 UNK         0.0616 
    135 H135       37.5421   25.3807    5.5461 H         1 UNK         0.0616 
    136 H136       37.4300   25.5966    1.1898 H         1 UNK         0.0634 
    137 H137       37.2831   24.2889    2.3297 H         1 UNK         0.0634 
@<TRIPOS>BOND
     1    1    2 1    
     2    1   72 1    
     3    1   73 1    
     4    1   74 1    
     5    2    3 2    
     6    2    4 am   BACKBONE|DICT|INTERRES
     7    4    5 1    
     8    4   75 1    
     9    5    6 1    
    10    5   35 1    
    11    5   76 1    
    12    6    7 1    
    13    6   77 1    
    14    6   78 1    
    15    7    8 1    
    16    8    9 1    
    17    8   79 1    
    18    8   80 1    
    19    9   10 ar   
    20    9   14 ar   
    21   10   11 ar   
    22   10   81 1    
    23   11   12 ar   
    24   11   71 1    
    25   12   13 ar   
    26   12   82 1    
    27   13   14 ar   
    28   13   15 1    
    29   14   83 1    
    30   15   16 1    
    31   15   84 1    
    32   15   85 1    
    33   16   17 1    
    34   17   18 1    
    35   17   86 1    
    36   17   87 1    
    37   18   19 1    
    38   18   37 1    
    39   18   88 1    
    40   19   20 am   BACKBONE|DICT|INTERRES
    41   19   89 1    
    42   20   21 2    
    43   20   22 1    
    44   22   23 1    
    45   22   24 1    
    46   22   90 1    
    47   23   91 1    
    48   23   92 1    
    49   23   93 1    
    50   24   25 am   BACKBONE|DICT|INTERRES
    51   24   94 1    
    52   25   26 2    
    53   25   27 1    
    54   27   28 1    
    55   27   29 1    
    56   27   95 1    
    57   28   96 1    
    58   28   97 1    
    59   28   98 1    
    60   29   30 am   BACKBONE|DICT|INTERRES
    61   29   99 1    
    62   30   31 2    
    63   30   32 1    
    64   32   33 1    
    65   32   34 1    
    66   32  100 1    
    67   33  101 1    
    68   33  102 1    
    69   33  103 1    
    70   34   35 am   BACKBONE|DICT|INTERRES
    71   34  104 1    
    72   35   36 2    
    73   37   38 2    
    74   37   39 am   BACKBONE|DICT|INTERRES
    75   39   40 1    
    76   39  105 1    
    77   40   41 1    
    78   40   42 1    
    79   40  106 1    
    80   41  107 1    
    81   41  108 1    
    82   41  109 1    
    83   42   43 2    
    84   42   44 am   BACKBONE|DICT|INTERRES
    85   44   45 1    
    86   44  110 1    
    87   45   46 1    
    88   45   47 1    
    89   45  111 1    
    90   46  112 1    
    91   46  113 1    
    92   46  114 1    
    93   47   48 2    
    94   47   49 am   BACKBONE|DICT|INTERRES
    95   49   50 1    
    96   49  115 1    
    97   50   51 1    
    98   50   52 1    
    99   50  116 1    
   100   51  117 1    
   101   51  118 1    
   102   51  119 1    
   103   52   53 2    
   104   52   54 am   BACKBONE|DICT|INTERRES
   105   54   55 1    
   106   54  120 1    
   107   55   56 1    
   108   55   57 1    
   109   55  121 1    
   110   56  122 1    
   111   56  123 1    
   112   56  124 1    
   113   57   58 2    
   114   57   59 am   BACKBONE|DICT|INTERRES
   115   59   60 1    
   116   59  125 1    
   117   60   61 1    
   118   60   62 1    
   119   60  126 1    
   120   61  127 1    
   121   61  128 1    
   122   61  129 1    
   123   62   63 2    
   124   62   64 am   BACKBONE|DICT|INTERRES
   125   64   65 1    
   126   64  130 1    
   127   65   66 1    
   128   65   69 1    
   129   65  131 1    
   130   66   67 am   BACKBONE|DICT|INTERRES
   131   66   68 2    
   132   67  132 1    
   133   67  133 1    
   134   69   70 1    
   135   69  134 1    
   136   69  135 1    
   137   70   71 1    
   138   71  136 1    
   139   71  137 1    
@<TRIPOS>SUBSTRUCTURE
     1 UNK         1 GROUP             0       ****    0 ROOT    
