@<TRIPOS>MOLECULE
3R136
137   139    1
SMALL
USER_CHARGES


@<TRIPOS>ATOM
      1 CA         29.5830   19.1086   -3.8566 C.3       0 UNK        -0.1979 
      2 C          30.0726   20.5204   -3.5693 C.2       0 UNK         0.4864 
      3 O          30.6107   21.1740   -4.4638 O.2       0 UNK        -0.5359 
      4 N          29.8890   20.9954   -2.3288 N.am      1 UNK        -0.4318 
      5 CA         30.2939   22.3332   -1.8742 C.3       1 UNK         0.0824 
      6 C6         30.3918   22.3877   -0.3271 C.3       12 UNK        -0.0944 
      7 S7         31.6064   23.6229    0.2443 S.3       12 UNK        -0.2672 
      8 C8         30.5227   24.8906    0.9669 C.3       12 UNK         0.0333 
      9 C9         30.4194   24.7382    2.4762 C.ar      12 UNK        -0.0807 
     10 C10        31.2337   25.5099    3.3109 C.ar      12 UNK        -0.0894 
     11 C11        31.1261   25.4070    4.7001 C.ar      12 UNK        -0.0804 
     12 C12        30.2031   24.5175    5.2561 C.ar      12 UNK        -0.0824 
     13 C13        29.3793   23.7436    4.4325 C.ar      12 UNK        -0.0762 
     14 C14        29.4983   23.8500    3.0418 C.ar      12 UNK        -0.0782 
     15 C15        28.3180   22.8430    5.0486 C.3       12 UNK         0.0230 
     16 S16        26.6349   23.4990    4.7896 S.3       12 UNK        -0.2608 
     17 C17        26.7351   25.1663    5.5380 C.3       12 UNK        -0.0989 
     18 CA         27.1414   26.2550    4.5057 C.3       5 UNK         0.0716 
     19 N          26.2835   26.2807    3.3169 N.am      5 UNK        -0.4135 
     20 C          25.0293   26.7332    3.2141 C.2       4 UNK         0.5031 
     21 O          24.4081   27.2533    4.1428 O.2       4 UNK        -0.5229 
     22 CA         24.3589   26.5715    1.8314 C.3       4 UNK         0.0329 
     23 CB         23.0181   27.3244    1.7348 C.3       4 UNK        -0.2001 
     24 N          25.2098   26.9803    0.7051 N.am      4 UNK        -0.4303 
     25 C          26.2421   26.2874    0.2067 C.2       3 UNK         0.5044 
     26 O          26.6736   25.2455    0.7075 O.2       3 UNK        -0.5152 
     27 CA         26.9353   26.8805   -1.0302 C.3       3 UNK         0.0319 
     28 CB         28.1535   27.7208   -0.6165 C.3       3 UNK        -0.2001 
     29 N          27.3610   25.8282   -1.9549 N.am      3 UNK        -0.4354 
     30 C          26.5316   25.0615   -2.6736 C.2       2 UNK         0.4964 
     31 O          25.3088   25.2117   -2.6870 O.2       2 UNK        -0.5047 
     32 CA         27.1488   23.9402   -3.5298 C.3       2 UNK         0.0288 
     33 CB         27.6612   24.4892   -4.8763 C.3       2 UNK        -0.2113 
     34 N          28.1701   23.1192   -2.8597 N.am      2 UNK        -0.4145 
     35 C          29.4014   23.4624   -2.4468 C.2       1 UNK         0.5006 
     36 O          29.8463   24.6098   -2.5133 O.2       1 UNK        -0.5103 
     37 C          27.3589   27.6510    5.1231 C.2       5 UNK         0.5055 
     38 O          27.2805   27.8211    6.3418 O.2       5 UNK        -0.5220 
     39 N          27.6347   28.6225    4.2488 N.am      6 UNK        -0.4450 
     40 CA         27.9309   30.0165    4.5433 C.3       6 UNK         0.0367 
     41 CB         26.6374   30.7662    4.9187 C.3       6 UNK        -0.1929 
     42 C          28.5749   30.6185    3.2888 C.2       6 UNK         0.5070 
     43 O          28.5483   29.9885    2.2269 O.2       6 UNK        -0.5237 
     44 N          29.1280   31.8298    3.4290 N.am      7 UNK        -0.4739 
     45 CA         29.7261   32.6918    2.3960 C.3       7 UNK         0.0276 
     46 CB         28.6984   33.0647    1.3094 C.3       7 UNK        -0.1927 
     47 C          31.0266   32.1663    1.7609 C.2       7 UNK         0.5013 
     48 O          31.9640   32.9511    1.6127 O.2       7 UNK        -0.5193 
     49 N          31.0768   30.8728    1.4159 N.am      8 UNK        -0.4253 
     50 CA         32.2077   30.1548    0.8158 C.3       8 UNK         0.0242 
     51 CB         31.8006   28.6871    0.6015 C.3       8 UNK        -0.2000 
     52 C          33.4794   30.2632    1.6751 C.2       8 UNK         0.4948 
     53 O          33.5996   29.5546    2.6764 O.2       8 UNK        -0.5275 
     54 N          34.3528   31.2202    1.3199 N.am      9 UNK        -0.4246 
     55 CA         35.5274   31.6805    2.0800 C.3       9 UNK         0.0261 
     56 CB         36.6339   30.6046    2.0627 C.3       9 UNK        -0.1959 
     57 C          35.1822   32.1437    3.5141 C.2       9 UNK         0.5033 
     58 O          36.0160   32.0228    4.4144 O.2       9 UNK        -0.5390 
     59 N          33.9300   32.5897    3.7152 N.am      10 UNK        -0.4215 
     60 CA         33.2589   32.8481    4.9975 C.3       10 UNK         0.0240 
     61 CB         33.8264   34.1286    5.6449 C.3       10 UNK        -0.1982 
     62 C          33.2666   31.6456    5.9724 C.2       10 UNK         0.4970 
     63 O          33.1049   31.8509    7.1766 O.2       10 UNK        -0.4916 
     64 N          33.4844   30.4269    5.4520 N.am      11 UNK        -0.4279 
     65 CA         33.8128   29.2063    6.2051 C.3       11 UNK         0.1003 
     66 C          35.1075   29.3139    7.0727 C.2       11 UNK         0.5709 
     67 N          36.0498   30.1922    6.7453 N.am      11 UNK        -0.7358 
     68 O          35.2854   28.5718    8.0361 O.2       11 UNK        -0.4999 
     69 C69        32.5896   28.6091    6.9594 C.3       12 UNK        -0.0954 
     70 S70        31.3438   27.9368    5.8093 S.3       12 UNK        -0.2268 
     71 C71        32.0095   26.2547    5.5996 C.3       12 UNK         0.0203 
     72 H72        28.8400   19.1241   -4.6536 H         1 UNK         0.0888 
     73 H73        30.4144   18.4818   -4.1778 H         1 UNK         0.0888 
     74 H74        29.1300   18.6467   -2.9795 H         1 UNK         0.0888 
     75 H75        29.4517   20.4057   -1.6342 H         1 UNK         0.3017 
     76 H76        31.2946   22.5030   -2.2789 H         1 UNK         0.0873 
     77 H77        30.7398   21.4281    0.0591 H         1 UNK         0.0745 
     78 H78        29.4149   22.5493    0.1322 H         1 UNK         0.0745 
     79 H79        29.5315   24.8547    0.5126 H         1 UNK         0.0705 
     80 H80        30.9299   25.8705    0.7167 H         1 UNK         0.0705 
     81 H81        31.9477   26.1998    2.8818 H         1 UNK         0.1334 
     82 H82        30.1088   24.4476    6.3314 H         1 UNK         0.1417 
     83 H83        28.8495   23.2663    2.4031 H         1 UNK         0.1562 
     84 H84        28.4900   22.7122    6.1182 H         1 UNK         0.0748 
     85 H85        28.3844   21.8491    4.6039 H         1 UNK         0.0748 
     86 H86        27.4405   25.1381    6.3705 H         1 UNK         0.0940 
     87 H87        25.7635   25.4062    5.9732 H         1 UNK         0.0940 
     88 H88        28.1241   26.0017    4.1186 H         1 UNK         0.0703 
     89 H89        26.6684   25.8364    2.4869 H         1 UNK         0.3081 
     90 H90        24.1437   25.5066    1.7187 H         1 UNK         0.0719 
     91 H91        23.1505   28.4001    1.8569 H         1 UNK         0.0809 
     92 H92        22.5326   27.1512    0.7742 H         1 UNK         0.0809 
     93 H93        22.3237   26.9912    2.5075 H         1 UNK         0.0809 
     94 H94        24.9593   27.8506    0.2578 H         1 UNK         0.2990 
     95 H95        26.2303   27.5272   -1.5570 H         1 UNK         0.0690 
     96 H96        28.6609   28.1413   -1.4849 H         1 UNK         0.0788 
     97 H97        28.8795   27.1332   -0.0556 H         1 UNK         0.0788 
     98 H98        27.8539   28.5562    0.0174 H         1 UNK         0.0788 
     99 H99        28.3538   25.6145   -2.0041 H         1 UNK         0.2993 
    100 H100       26.3334   23.2509   -3.7565 H         1 UNK         0.0949 
    101 H101       28.0218   23.6862   -5.5194 H         1 UNK         0.0767 
    102 H102       26.8641   25.0035   -5.4150 H         1 UNK         0.0767 
    103 H103       28.4746   25.2035   -4.7447 H         1 UNK         0.0767 
    104 H104       27.9063   22.1538   -2.7213 H         1 UNK         0.3013 
    105 H105       27.7192   28.4037    3.2626 H         1 UNK         0.3121 
    106 H106       28.6490   30.0634    5.3648 H         1 UNK         0.0774 
    107 H107       26.8352   31.8167    5.1342 H         1 UNK         0.0815 
    108 H108       25.9052   30.7296    4.1111 H         1 UNK         0.0815 
    109 H109       26.1723   30.3402    5.8077 H         1 UNK         0.0815 
    110 H110       29.1138   32.2358    4.3549 H         1 UNK         0.2987 
    111 H111       29.9940   33.6158    2.9116 H         1 UNK         0.0949 
    112 H112       28.3810   32.1977    0.7292 H         1 UNK         0.0806 
    113 H113       27.8089   33.5200    1.7448 H         1 UNK         0.0806 
    114 H114       29.1197   33.7853    0.6072 H         1 UNK         0.0806 
    115 H115       30.2353   30.3304    1.5994 H         1 UNK         0.3010 
    116 H116       32.4078   30.5974   -0.1619 H         1 UNK         0.0829 
    117 H117       30.9791   28.6056   -0.1096 H         1 UNK         0.0813 
    118 H118       32.6314   28.1012    0.2059 H         1 UNK         0.0813 
    119 H119       31.4840   28.2197    1.5347 H         1 UNK         0.0813 
    120 H120       34.1220   31.7814    0.5105 H         1 UNK         0.3038 
    121 H121       35.9080   32.5611    1.5606 H         1 UNK         0.0769 
    122 H122       37.5553   30.9816    2.5083 H         1 UNK         0.0811 
    123 H123       36.8715   30.2956    1.0449 H         1 UNK         0.0811 
    124 H124       36.3417   29.7162    2.6237 H         1 UNK         0.0811 
    125 H125       33.3320   32.6731    2.8950 H         1 UNK         0.3204 
    126 H126       32.2107   33.0326    4.7589 H         1 UNK         0.0748 
    127 H127       33.2487   34.4161    6.5243 H         1 UNK         0.0771 
    128 H128       34.8605   33.9940    5.9641 H         1 UNK         0.0771 
    129 H129       33.7963   34.9696    4.9521 H         1 UNK         0.0771 
    130 H130       33.5714   30.3274    4.4445 H         1 UNK         0.2980 
    131 H131       34.0975   28.4837    5.4402 H         1 UNK         0.0545 
    132 H132       35.9430   30.8051    5.9419 H         1 UNK         0.3459 
    133 H133       36.8855   30.2447    7.3049 H         1 UNK         0.3459 
    134 H134       32.8874   27.8044    7.6332 H         1 UNK         0.0616 
    135 H135       32.1167   29.3626    7.5902 H         1 UNK         0.0616 
    136 H136       32.1130   25.7814    6.5772 H         1 UNK         0.0634 
    137 H137       33.0135   26.3117    5.1766 H         1 UNK         0.0634 
@<TRIPOS>BOND
     1    1    2 1    
     2    1   72 1    
     3    1   73 1    
     4    1   74 1    
     5    2    3 2    
     6    2    4 am   BACKBONE|DICT|INTERRES
     7    4    5 1    
     8    4   75 1    
     9    5    6 1    
    10    5   35 1    
    11    5   76 1    
    12    6    7 1    
    13    6   77 1    
    14    6   78 1    
    15    7    8 1    
    16    8    9 1    
    17    8   79 1    
    18    8   80 1    
    19    9   10 ar   
    20    9   14 ar   
    21   10   11 ar   
    22   10   81 1    
    23   11   12 ar   
    24   11   71 1    
    25   12   13 ar   
    26   12   82 1    
    27   13   14 ar   
    28   13   15 1    
    29   14   83 1    
    30   15   16 1    
    31   15   84 1    
    32   15   85 1    
    33   16   17 1    
    34   17   18 1    
    35   17   86 1    
    36   17   87 1    
    37   18   19 1    
    38   18   37 1    
    39   18   88 1    
    40   19   20 am   BACKBONE|DICT|INTERRES
    41   19   89 1    
    42   20   21 2    
    43   20   22 1    
    44   22   23 1    
    45   22   24 1    
    46   22   90 1    
    47   23   91 1    
    48   23   92 1    
    49   23   93 1    
    50   24   25 am   BACKBONE|DICT|INTERRES
    51   24   94 1    
    52   25   26 2    
    53   25   27 1    
    54   27   28 1    
    55   27   29 1    
    56   27   95 1    
    57   28   96 1    
    58   28   97 1    
    59   28   98 1    
    60   29   30 am   BACKBONE|DICT|INTERRES
    61   29   99 1    
    62   30   31 2    
    63   30   32 1    
    64   32   33 1    
    65   32   34 1    
    66   32  100 1    
    67   33  101 1    
    68   33  102 1    
    69   33  103 1    
    70   34   35 am   BACKBONE|DICT|INTERRES
    71   34  104 1    
    72   35   36 2    
    73   37   38 2    
    74   37   39 am   BACKBONE|DICT|INTERRES
    75   39   40 1    
    76   39  105 1    
    77   40   41 1    
    78   40   42 1    
    79   40  106 1    
    80   41  107 1    
    81   41  108 1    
    82   41  109 1    
    83   42   43 2    
    84   42   44 am   BACKBONE|DICT|INTERRES
    85   44   45 1    
    86   44  110 1    
    87   45   46 1    
    88   45   47 1    
    89   45  111 1    
    90   46  112 1    
    91   46  113 1    
    92   46  114 1    
    93   47   48 2    
    94   47   49 am   BACKBONE|DICT|INTERRES
    95   49   50 1    
    96   49  115 1    
    97   50   51 1    
    98   50   52 1    
    99   50  116 1    
   100   51  117 1    
   101   51  118 1    
   102   51  119 1    
   103   52   53 2    
   104   52   54 am   BACKBONE|DICT|INTERRES
   105   54   55 1    
   106   54  120 1    
   107   55   56 1    
   108   55   57 1    
   109   55  121 1    
   110   56  122 1    
   111   56  123 1    
   112   56  124 1    
   113   57   58 2    
   114   57   59 am   BACKBONE|DICT|INTERRES
   115   59   60 1    
   116   59  125 1    
   117   60   61 1    
   118   60   62 1    
   119   60  126 1    
   120   61  127 1    
   121   61  128 1    
   122   61  129 1    
   123   62   63 2    
   124   62   64 am   BACKBONE|DICT|INTERRES
   125   64   65 1    
   126   64  130 1    
   127   65   66 1    
   128   65   69 1    
   129   65  131 1    
   130   66   67 am   BACKBONE|DICT|INTERRES
   131   66   68 2    
   132   67  132 1    
   133   67  133 1    
   134   69   70 1    
   135   69  134 1    
   136   69  135 1    
   137   70   71 1    
   138   71  136 1    
   139   71  137 1    
@<TRIPOS>SUBSTRUCTURE
     1 UNK         1 GROUP             0       ****    0 ROOT    
