@<TRIPOS>MOLECULE
3R136
137   139    1
SMALL
USER_CHARGES


@<TRIPOS>ATOM
      1 CA         31.3816   28.7013    0.5588 C.3       0 UNK        -0.1979 
      2 C          30.6251   27.3952    0.7354 C.2       0 UNK         0.4864 
      3 O          29.6356   27.3623    1.4665 O.2       0 UNK        -0.5359 
      4 N          31.0807   26.3193    0.0798 N.am      1 UNK        -0.4318 
      5 CA         30.4029   25.0162    0.0744 C.3       1 UNK         0.0824 
      6 C6         31.3122   23.8603   -0.4169 C.3       12 UNK        -0.0944 
      7 S7         32.9364   23.7991    0.4121 S.3       12 UNK        -0.2672 
      8 C8         32.6148   22.6526    1.7917 C.3       12 UNK         0.0333 
      9 C9         31.7233   23.2675    2.8631 C.ar      12 UNK        -0.0807 
     10 C10        32.0956   24.4638    3.4834 C.ar      12 UNK        -0.0894 
     11 C11        31.2907   25.0337    4.4717 C.ar      12 UNK        -0.0804 
     12 C12        30.1141   24.3880    4.8590 C.ar      12 UNK        -0.0824 
     13 C13        29.7340   23.1862    4.2545 C.ar      12 UNK        -0.0762 
     14 C14        30.5385   22.6336    3.2520 C.ar      12 UNK        -0.0782 
     15 C15        28.4711   22.4675    4.7054 C.3       12 UNK         0.0230 
     16 S16        27.0655   22.7874    3.5958 S.3       12 UNK        -0.2608 
     17 C17        26.6325   24.5175    3.9969 C.3       12 UNK        -0.0989 
     18 CA         26.8820   25.4836    2.8048 C.3       5 UNK         0.0716 
     19 N          26.1751   25.0794    1.5815 N.am      5 UNK        -0.4135 
     20 C          24.8478   25.0053    1.4119 C.2       4 UNK         0.5031 
     21 O          24.0187   25.3632    2.2505 O.2       4 UNK        -0.5229 
     22 CA         24.3718   24.4618    0.0591 C.3       4 UNK         0.0329 
     23 CB         22.8727   24.0904    0.0563 C.3       4 UNK        -0.2001 
     24 N          24.6547   25.4569   -0.9702 N.am      4 UNK        -0.4303 
     25 C          24.7235   25.2121   -2.2839 C.2       3 UNK         0.5044 
     26 O          24.5456   24.1045   -2.7905 O.2       3 UNK        -0.5152 
     27 CA         25.0809   26.4009   -3.1932 C.3       3 UNK         0.0319 
     28 CB         23.8017   27.1021   -3.6772 C.3       3 UNK        -0.2001 
     29 N          25.9456   27.3831   -2.5294 N.am      3 UNK        -0.4354 
     30 C          27.2541   27.2652   -2.2571 C.2       2 UNK         0.4964 
     31 O          27.8538   28.1362   -1.6287 O.2       2 UNK        -0.5047 
     32 CA         28.0512   26.0545   -2.7884 C.3       2 UNK         0.0288 
     33 CB         28.5893   26.3474   -4.1995 C.3       2 UNK        -0.2113 
     34 N          29.1836   25.7684   -1.9112 N.am      2 UNK        -0.4145 
     35 C          29.1126   25.0721   -0.7683 C.2       1 UNK         0.5006 
     36 O          28.0905   24.5113   -0.3691 O.2       1 UNK        -0.5103 
     37 C          26.5850   26.9588    3.1546 C.2       5 UNK         0.5055 
     38 O          26.0566   27.2522    4.2295 O.2       5 UNK        -0.5220 
     39 N          26.9091   27.8609    2.2179 N.am      6 UNK        -0.4450 
     40 CA         26.7402   29.3102    2.3550 C.3       6 UNK         0.0367 
     41 CB         26.8636   29.9667    0.9717 C.3       6 UNK        -0.1929 
     42 C          27.7393   29.9491    3.3366 C.2       6 UNK         0.5070 
     43 O          27.4182   30.9858    3.9192 O.2       6 UNK        -0.5237 
     44 N          28.9121   29.3191    3.5055 N.am      7 UNK        -0.4739 
     45 CA         30.0212   29.7300    4.3735 C.3       7 UNK         0.0276 
     46 CB         29.5909   29.7241    5.8599 C.3       7 UNK        -0.1927 
     47 C          30.6794   31.0449    3.9094 C.2       7 UNK         0.5013 
     48 O          30.7024   31.3195    2.7071 O.2       7 UNK        -0.5193 
     49 N          31.2688   31.7935    4.8529 N.am      8 UNK        -0.4253 
     50 CA         32.0118   33.0546    4.7097 C.3       8 UNK         0.0242 
     51 CB         31.1350   34.1707    4.1076 C.3       8 UNK        -0.2000 
     52 C          33.3488   32.9234    3.9584 C.2       8 UNK         0.4948 
     53 O          34.3728   33.3766    4.4705 O.2       8 UNK        -0.5275 
     54 N          33.3207   32.3191    2.7653 N.am      9 UNK        -0.4246 
     55 CA         34.4923   32.0761    1.9250 C.3       9 UNK         0.0261 
     56 CB         34.0597   31.9638    0.4524 C.3       9 UNK        -0.1959 
     57 C          35.2633   30.8278    2.3794 C.2       9 UNK         0.5033 
     58 O          36.4545   30.9214    2.6768 O.2       9 UNK        -0.5390 
     59 N          34.5703   29.6811    2.4121 N.am      10 UNK        -0.4215 
     60 CA         35.1561   28.3721    2.7215 C.3       10 UNK         0.0240 
     61 CB         34.3589   27.2746    1.9968 C.3       10 UNK        -0.1982 
     62 C          35.2407   28.0718    4.2280 C.2       10 UNK         0.4970 
     63 O          36.0584   27.2377    4.6178 O.2       10 UNK        -0.4916 
     64 N          34.4063   28.7363    5.0362 N.am      11 UNK        -0.4279 
     65 CA         34.3602   28.6102    6.4981 C.3       11 UNK         0.1003 
     66 C          34.4011   30.0291    7.1112 C.2       11 UNK         0.5709 
     67 N          35.3403   30.3052    8.0047 N.am      11 UNK        -0.7358 
     68 O          33.5581   30.8688    6.8018 O.2       11 UNK        -0.4999 
     69 C69        33.0986   27.8506    6.9912 C.3       12 UNK        -0.0954 
     70 S70        32.9654   26.1389    6.3780 S.3       12 UNK        -0.2268 
     71 C71        31.6853   26.3543    5.1069 C.3       12 UNK         0.0203 
     72 H72        32.2500   28.5894   -0.0898 H         1 UNK         0.0888 
     73 H73        30.7241   29.4533    0.1228 H         1 UNK         0.0888 
     74 H74        31.7146   29.0677    1.5272 H         1 UNK         0.0888 
     75 H75        31.9283   26.3777   -0.4662 H         1 UNK         0.3017 
     76 H76        30.1043   24.7944    1.1012 H         1 UNK         0.0873 
     77 H77        31.5053   23.9534   -1.4875 H         1 UNK         0.0745 
     78 H78        30.8088   22.9003   -0.2859 H         1 UNK         0.0745 
     79 H79        33.5675   22.3794    2.2470 H         1 UNK         0.0705 
     80 H80        32.1854   21.7288    1.4009 H         1 UNK         0.0705 
     81 H81        33.0135   24.9537    3.1921 H         1 UNK         0.1334 
     82 H82        29.4977   24.8196    5.6355 H         1 UNK         0.1417 
     83 H83        30.2439   21.7038    2.7843 H         1 UNK         0.1562 
     84 H84        28.2054   22.7497    5.7255 H         1 UNK         0.0748 
     85 H85        28.6569   21.3927    4.7310 H         1 UNK         0.0748 
     86 H86        27.1961   24.8416    4.8726 H         1 UNK         0.0940 
     87 H87        25.5839   24.5411    4.2987 H         1 UNK         0.0940 
     88 H88        27.9469   25.4370    2.5695 H         1 UNK         0.0703 
     89 H89        26.7812   24.7856    0.8157 H         1 UNK         0.3081 
     90 H90        24.9518   23.5597   -0.1491 H         1 UNK         0.0719 
     91 H91        22.6442   23.3864    0.8574 H         1 UNK         0.0809 
     92 H92        22.2403   24.9673    0.2001 H         1 UNK         0.0809 
     93 H93        22.5783   23.6164   -0.8800 H         1 UNK         0.0809 
     94 H94        24.8313   26.3957   -0.6400 H         1 UNK         0.2990 
     95 H95        25.5927   26.0095   -4.0738 H         1 UNK         0.0690 
     96 H96        23.2328   27.5277   -2.8494 H         1 UNK         0.0788 
     97 H97        23.1457   26.4016   -4.1963 H         1 UNK         0.0788 
     98 H98        24.0306   27.9066   -4.3765 H         1 UNK         0.0788 
     99 H99        25.4831   28.2238   -2.2159 H         1 UNK         0.2993 
    100 H100       27.4270   25.1622   -2.8290 H         1 UNK         0.0949 
    101 H101       29.2421   27.2215   -4.2093 H         1 UNK         0.0767 
    102 H102       29.1558   25.5020   -4.5908 H         1 UNK         0.0767 
    103 H103       27.7774   26.5430   -4.9007 H         1 UNK         0.0767 
    104 H104       30.0455   26.2477   -2.1242 H         1 UNK         0.3013 
    105 H105       27.4490   27.5476    1.4199 H         1 UNK         0.3121 
    106 H106       25.7345   29.5001    2.7361 H         1 UNK         0.0774 
    107 H107       26.6982   31.0430    1.0344 H         1 UNK         0.0815 
    108 H108       27.8559   29.8148    0.5442 H         1 UNK         0.0815 
    109 H109       26.1307   29.5654    0.2721 H         1 UNK         0.0815 
    110 H110       29.0983   28.5236    2.8984 H         1 UNK         0.2987 
    111 H111       30.7881   28.9683    4.2474 H         1 UNK         0.0949 
    112 H112       30.4385   29.8539    6.5318 H         1 UNK         0.0806 
    113 H113       28.8796   30.5205    6.0812 H         1 UNK         0.0806 
    114 H114       29.1185   28.7786    6.1269 H         1 UNK         0.0806 
    115 H115       31.2529   31.4366    5.7989 H         1 UNK         0.3010 
    116 H116       32.2622   33.3560    5.7285 H         1 UNK         0.0829 
    117 H117       30.2261   34.3172    4.6910 H         1 UNK         0.0813 
    118 H118       31.6703   35.1211    4.0971 H         1 UNK         0.0813 
    119 H119       30.8409   33.9552    3.0801 H         1 UNK         0.0813 
    120 H120       32.4162   31.9836    2.4401 H         1 UNK         0.3038 
    121 H121       35.1675   32.9311    2.0064 H         1 UNK         0.0769 
    122 H122       33.6166   32.8963    0.1023 H         1 UNK         0.0811 
    123 H123       34.9153   31.7530   -0.1909 H         1 UNK         0.0811 
    124 H124       33.3282   31.1709    0.2945 H         1 UNK         0.0811 
    125 H125       33.5991   29.7014    2.1456 H         1 UNK         0.3204 
    126 H126       36.1769   28.3461    2.3332 H         1 UNK         0.0748 
    127 H127       34.3605   27.4293    0.9179 H         1 UNK         0.0771 
    128 H128       34.7978   26.2921    2.1767 H         1 UNK         0.0771 
    129 H129       33.3232   27.2338    2.3313 H         1 UNK         0.0771 
    130 H130       33.8270   29.4663    4.6513 H         1 UNK         0.2980 
    131 H131       35.2388   28.0656    6.8499 H         1 UNK         0.0545 
    132 H132       36.0273   29.6177    8.2726 H         1 UNK         0.3459 
    133 H133       35.3641   31.2244    8.4174 H         1 UNK         0.3459 
    134 H134       33.1017   27.7975    8.0815 H         1 UNK         0.0616 
    135 H135       32.1943   28.3964    6.7245 H         1 UNK         0.0616 
    136 H136       32.0572   27.0301    4.3376 H         1 UNK         0.0634 
    137 H137       30.8105   26.8317    5.5507 H         1 UNK         0.0634 
@<TRIPOS>BOND
     1    1    2 1    
     2    1   72 1    
     3    1   73 1    
     4    1   74 1    
     5    2    3 2    
     6    2    4 am   BACKBONE|DICT|INTERRES
     7    4    5 1    
     8    4   75 1    
     9    5    6 1    
    10    5   35 1    
    11    5   76 1    
    12    6    7 1    
    13    6   77 1    
    14    6   78 1    
    15    7    8 1    
    16    8    9 1    
    17    8   79 1    
    18    8   80 1    
    19    9   10 ar   
    20    9   14 ar   
    21   10   11 ar   
    22   10   81 1    
    23   11   12 ar   
    24   11   71 1    
    25   12   13 ar   
    26   12   82 1    
    27   13   14 ar   
    28   13   15 1    
    29   14   83 1    
    30   15   16 1    
    31   15   84 1    
    32   15   85 1    
    33   16   17 1    
    34   17   18 1    
    35   17   86 1    
    36   17   87 1    
    37   18   19 1    
    38   18   37 1    
    39   18   88 1    
    40   19   20 am   BACKBONE|DICT|INTERRES
    41   19   89 1    
    42   20   21 2    
    43   20   22 1    
    44   22   23 1    
    45   22   24 1    
    46   22   90 1    
    47   23   91 1    
    48   23   92 1    
    49   23   93 1    
    50   24   25 am   BACKBONE|DICT|INTERRES
    51   24   94 1    
    52   25   26 2    
    53   25   27 1    
    54   27   28 1    
    55   27   29 1    
    56   27   95 1    
    57   28   96 1    
    58   28   97 1    
    59   28   98 1    
    60   29   30 am   BACKBONE|DICT|INTERRES
    61   29   99 1    
    62   30   31 2    
    63   30   32 1    
    64   32   33 1    
    65   32   34 1    
    66   32  100 1    
    67   33  101 1    
    68   33  102 1    
    69   33  103 1    
    70   34   35 am   BACKBONE|DICT|INTERRES
    71   34  104 1    
    72   35   36 2    
    73   37   38 2    
    74   37   39 am   BACKBONE|DICT|INTERRES
    75   39   40 1    
    76   39  105 1    
    77   40   41 1    
    78   40   42 1    
    79   40  106 1    
    80   41  107 1    
    81   41  108 1    
    82   41  109 1    
    83   42   43 2    
    84   42   44 am   BACKBONE|DICT|INTERRES
    85   44   45 1    
    86   44  110 1    
    87   45   46 1    
    88   45   47 1    
    89   45  111 1    
    90   46  112 1    
    91   46  113 1    
    92   46  114 1    
    93   47   48 2    
    94   47   49 am   BACKBONE|DICT|INTERRES
    95   49   50 1    
    96   49  115 1    
    97   50   51 1    
    98   50   52 1    
    99   50  116 1    
   100   51  117 1    
   101   51  118 1    
   102   51  119 1    
   103   52   53 2    
   104   52   54 am   BACKBONE|DICT|INTERRES
   105   54   55 1    
   106   54  120 1    
   107   55   56 1    
   108   55   57 1    
   109   55  121 1    
   110   56  122 1    
   111   56  123 1    
   112   56  124 1    
   113   57   58 2    
   114   57   59 am   BACKBONE|DICT|INTERRES
   115   59   60 1    
   116   59  125 1    
   117   60   61 1    
   118   60   62 1    
   119   60  126 1    
   120   61  127 1    
   121   61  128 1    
   122   61  129 1    
   123   62   63 2    
   124   62   64 am   BACKBONE|DICT|INTERRES
   125   64   65 1    
   126   64  130 1    
   127   65   66 1    
   128   65   69 1    
   129   65  131 1    
   130   66   67 am   BACKBONE|DICT|INTERRES
   131   66   68 2    
   132   67  132 1    
   133   67  133 1    
   134   69   70 1    
   135   69  134 1    
   136   69  135 1    
   137   70   71 1    
   138   71  136 1    
   139   71  137 1    
@<TRIPOS>SUBSTRUCTURE
     1 UNK         1 GROUP             0       ****    0 ROOT    
