@<TRIPOS>MOLECULE
3R136
137   139    1
SMALL
USER_CHARGES


@<TRIPOS>ATOM
      1 CA         31.6356   23.4968   -2.2643 C.3       0 UNK        -0.1979 
      2 C          30.6996   22.8357   -1.2642 C.2       0 UNK         0.4864 
      3 O          30.0225   21.8657   -1.6088 O.2       0 UNK        -0.5359 
      4 N          30.6560   23.3637   -0.0339 N.am      1 UNK        -0.4318 
      5 CA         29.8351   22.9344    1.1067 C.3       1 UNK         0.0824 
      6 C6         30.0699   21.4727    1.5894 C.3       12 UNK        -0.0944 
      7 S7         31.8238   21.0128    1.8054 S.3       12 UNK        -0.2672 
      8 C8         32.1471   21.4808    3.5402 C.3       12 UNK         0.0333 
      9 C9         32.1661   22.9905    3.7528 C.ar      12 UNK        -0.0807 
     10 C10        32.8857   23.8192    2.8832 C.ar      12 UNK        -0.0894 
     11 C11        32.8650   25.2051    3.0449 C.ar      12 UNK        -0.0804 
     12 C12        32.1635   25.7600    4.1143 C.ar      12 UNK        -0.0824 
     13 C13        31.4467   24.9492    4.9978 C.ar      12 UNK        -0.0762 
     14 C14        31.4553   23.5621    4.8154 C.ar      12 UNK        -0.0782 
     15 C15        30.6710   25.5871    6.1443 C.3       12 UNK         0.0230 
     16 S16        28.8618   25.3591    6.0530 S.3       12 UNK        -0.2608 
     17 C17        28.4379   25.5745    4.2878 C.3       12 UNK        -0.0989 
     18 CA         28.7911   26.9225    3.6056 C.3       5 UNK         0.0716 
     19 N          28.5144   26.8419    2.1654 N.am      5 UNK        -0.4135 
     20 C          28.8274   27.7826    1.2627 C.2       4 UNK         0.5031 
     21 O          29.4679   28.7947    1.5419 O.2       4 UNK        -0.5229 
     22 CA         28.2823   27.6186   -0.1700 C.3       4 UNK         0.0329 
     23 CB         29.3342   26.9962   -1.0994 C.3       4 UNK        -0.2001 
     24 N          27.0494   26.8353   -0.2781 N.am      4 UNK        -0.4303 
     25 C          25.8846   27.0670    0.3392 C.2       3 UNK         0.5044 
     26 O          25.7161   27.9747    1.1522 O.2       3 UNK        -0.5152 
     27 CA         24.7193   26.1058    0.0322 C.3       3 UNK         0.0319 
     28 CB         23.9775   26.5206   -1.2532 C.3       3 UNK        -0.2001 
     29 N          25.1043   24.6854    0.0113 N.am      3 UNK        -0.4354 
     30 C          25.9170   24.0479   -0.8443 C.2       2 UNK         0.4964 
     31 O          26.4191   24.5641   -1.8450 O.2       2 UNK        -0.5047 
     32 CA         26.3107   22.6134   -0.4625 C.3       2 UNK         0.0288 
     33 CB         26.0294   21.6337   -1.6138 C.3       2 UNK        -0.2113 
     34 N          27.7266   22.5313   -0.0948 N.am      2 UNK        -0.4145 
     35 C          28.3347   23.2144    0.8859 C.2       1 UNK         0.5006 
     36 O          27.7645   24.0415    1.5990 O.2       1 UNK        -0.5103 
     37 C          28.1308   28.1493    4.2829 C.2       5 UNK         0.5055 
     38 O          28.6803   28.6642    5.2579 O.2       5 UNK        -0.5220 
     39 N          27.0113   28.6487    3.7329 N.am      6 UNK        -0.4450 
     40 CA         26.3482   29.8704    4.1970 C.3       6 UNK         0.0367 
     41 CB         24.9132   29.9197    3.6487 C.3       6 UNK        -0.1929 
     42 C          27.1043   31.1633    3.8343 C.2       6 UNK         0.5070 
     43 O          26.8435   32.1934    4.4578 O.2       6 UNK        -0.5237 
     44 N          28.0319   31.1168    2.8641 N.am      7 UNK        -0.4739 
     45 CA         28.8566   32.2557    2.4453 C.3       7 UNK         0.0276 
     46 CB         29.3221   32.0520    0.9908 C.3       7 UNK        -0.1927 
     47 C          30.0308   32.4617    3.4181 C.2       7 UNK         0.5013 
     48 O          31.1872   32.2376    3.0523 O.2       7 UNK        -0.5193 
     49 N          29.6964   32.8232    4.6667 N.am      8 UNK        -0.4253 
     50 CA         30.5915   33.0939    5.8034 C.3       8 UNK         0.0242 
     51 CB         31.3519   34.4162    5.5670 C.3       8 UNK        -0.2000 
     52 C          31.5475   31.9318    6.1505 C.2       8 UNK         0.4948 
     53 O          32.6198   32.1723    6.7071 O.2       8 UNK        -0.5275 
     54 N          31.1618   30.7022    5.7743 N.am      9 UNK        -0.4246 
     55 CA         31.9584   29.4706    5.7813 C.3       9 UNK         0.0261 
     56 CB         32.2654   29.0176    7.2244 C.3       9 UNK        -0.1959 
     57 C          33.2214   29.5180    4.8927 C.2       9 UNK         0.5033 
     58 O          34.0980   28.6681    5.0555 O.2       9 UNK        -0.5390 
     59 N          33.2984   30.4811    3.9638 N.am      10 UNK        -0.4215 
     60 CA         34.4497   30.6955    3.0872 C.3       10 UNK         0.0240 
     61 CB         34.6641   32.2090    2.9156 C.3       10 UNK        -0.1982 
     62 C          34.2889   30.0231    1.7158 C.2       10 UNK         0.4970 
     63 O          35.2990   29.8252    1.0399 O.2       10 UNK        -0.4916 
     64 N          33.0463   29.7099    1.3161 N.am      11 UNK        -0.4279 
     65 CA         32.6816   29.1863   -0.0138 C.3       11 UNK         0.1003 
     66 C          32.9534   30.1786   -1.1884 C.2       11 UNK         0.5709 
     67 N          33.0455   31.4802   -0.9392 N.am      11 UNK        -0.7358 
     68 O          33.0462   29.7779   -2.3463 O.2       11 UNK        -0.4999 
     69 C69        33.2213   27.7455   -0.2746 C.3       12 UNK        -0.0954 
     70 S70        32.3419   26.4970    0.7156 S.3       12 UNK        -0.2268 
     71 C71        33.5342   26.1118    2.0277 C.3       12 UNK         0.0203 
     72 H72        32.3794   22.7803   -2.6107 H         1 UNK         0.0888 
     73 H73        31.0725   23.8499   -3.1277 H         1 UNK         0.0888 
     74 H74        32.1606   24.3482   -1.8316 H         1 UNK         0.0888 
     75 H75        31.2434   24.1629    0.1628 H         1 UNK         0.3017 
     76 H76        30.1380   23.5902    1.9229 H         1 UNK         0.0873 
     77 H77        29.5450   21.2986    2.5305 H         1 UNK         0.0745 
     78 H78        29.6464   20.7615    0.8786 H         1 UNK         0.0745 
     79 H79        31.4058   21.0024    4.1821 H         1 UNK         0.0705 
     80 H80        33.1170   21.0782    3.8349 H         1 UNK         0.0705 
     81 H81        33.4274   23.3882    2.0524 H         1 UNK         0.1334 
     82 H82        32.1568   26.8322    4.2351 H         1 UNK         0.1417 
     83 H83        30.8963   22.9333    5.4954 H         1 UNK         0.1562 
     84 H84        30.8692   26.6560    6.1962 H         1 UNK         0.0748 
     85 H85        31.0279   25.1726    7.0880 H         1 UNK         0.0748 
     86 H86        27.3696   25.3767    4.1813 H         1 UNK         0.0940 
     87 H87        28.9353   24.7633    3.7570 H         1 UNK         0.0940 
     88 H88        29.8644   27.0796    3.6940 H         1 UNK         0.0703 
     89 H89        28.0180   26.0134    1.8523 H         1 UNK         0.3081 
     90 H90        28.0537   28.6206   -0.5382 H         1 UNK         0.0719 
     91 H91        29.6179   25.9962   -0.7717 H         1 UNK         0.0809 
     92 H92        28.9660   26.9200   -2.1227 H         1 UNK         0.0809 
     93 H93        30.2376   27.6035   -1.1329 H         1 UNK         0.0809 
     94 H94        27.0606   26.0552   -0.9306 H         1 UNK         0.2990 
     95 H95        24.0136   26.2039    0.8588 H         1 UNK         0.0690 
     96 H96        23.1187   25.8760   -1.4404 H         1 UNK         0.0788 
     97 H97        24.6223   26.4837   -2.1316 H         1 UNK         0.0788 
     98 H98        23.6041   27.5423   -1.1713 H         1 UNK         0.0788 
     99 H99        24.8009   24.1651    0.8234 H         1 UNK         0.2993 
    100 H100       25.7242   22.2998    0.4034 H         1 UNK         0.0949 
    101 H101       26.2464   20.6060   -1.3219 H         1 UNK         0.0767 
    102 H102       24.9808   21.6719   -1.9121 H         1 UNK         0.0767 
    103 H103       26.6291   21.8647   -2.4955 H         1 UNK         0.0767 
    104 H104       28.3271   21.9725   -0.6955 H         1 UNK         0.3013 
    105 H105       26.6290   28.2230    2.8927 H         1 UNK         0.3121 
    106 H106       26.2875   29.8267    5.2867 H         1 UNK         0.0774 
    107 H107       24.8986   30.0416    2.5652 H         1 UNK         0.0815 
    108 H108       24.3638   30.7603    4.0747 H         1 UNK         0.0815 
    109 H109       24.3597   29.0132    3.8937 H         1 UNK         0.0815 
    110 H110       28.2568   30.2251    2.4355 H         1 UNK         0.2987 
    111 H111       28.2487   33.1631    2.4681 H         1 UNK         0.0949 
    112 H112       30.0008   31.2056    0.8901 H         1 UNK         0.0806 
    113 H113       28.4781   31.8864    0.3214 H         1 UNK         0.0806 
    114 H114       29.8553   32.9323    0.6298 H         1 UNK         0.0806 
    115 H115       28.7014   32.8974    4.8602 H         1 UNK         0.3010 
    116 H116       29.9497   33.2276    6.6755 H         1 UNK         0.0829 
    117 H117       32.0587   34.3310    4.7405 H         1 UNK         0.0813 
    118 H118       30.6673   35.2333    5.3400 H         1 UNK         0.0813 
    119 H119       31.9189   34.7092    6.4515 H         1 UNK         0.0813 
    120 H120       30.2456   30.6094    5.3549 H         1 UNK         0.3038 
    121 H121       31.3178   28.7180    5.3259 H         1 UNK         0.0769 
    122 H122       32.7413   28.0364    7.2374 H         1 UNK         0.0811 
    123 H123       32.9388   29.7091    7.7311 H         1 UNK         0.0811 
    124 H124       31.3534   28.9406    7.8164 H         1 UNK         0.0811 
    125 H125       32.5247   31.1342    3.8558 H         1 UNK         0.3204 
    126 H126       35.3484   30.2822    3.5502 H         1 UNK         0.0748 
    127 H127       35.5407   32.4132    2.2992 H         1 UNK         0.0771 
    128 H128       33.8095   32.6890    2.4373 H         1 UNK         0.0771 
    129 H129       34.8242   32.6965    3.8777 H         1 UNK         0.0771 
    130 H130       32.2710   29.9214    1.9271 H         1 UNK         0.2980 
    131 H131       31.5949   29.1248    0.0015 H         1 UNK         0.0545 
    132 H132       33.2092   32.1166   -1.7030 H         1 UNK         0.3459 
    133 H133       32.9496   31.8308   -0.0002 H         1 UNK         0.3459 
    134 H134       33.0689   27.4534   -1.3145 H         1 UNK         0.0616 
    135 H135       34.2957   27.6776   -0.1024 H         1 UNK         0.0616 
    136 H136       33.8738   27.0333    2.5032 H         1 UNK         0.0634 
    137 H137       34.4141   25.6303    1.5988 H         1 UNK         0.0634 
@<TRIPOS>BOND
     1    1    2 1    
     2    1   72 1    
     3    1   73 1    
     4    1   74 1    
     5    2    3 2    
     6    2    4 am   BACKBONE|DICT|INTERRES
     7    4    5 1    
     8    4   75 1    
     9    5    6 1    
    10    5   35 1    
    11    5   76 1    
    12    6    7 1    
    13    6   77 1    
    14    6   78 1    
    15    7    8 1    
    16    8    9 1    
    17    8   79 1    
    18    8   80 1    
    19    9   10 ar   
    20    9   14 ar   
    21   10   11 ar   
    22   10   81 1    
    23   11   12 ar   
    24   11   71 1    
    25   12   13 ar   
    26   12   82 1    
    27   13   14 ar   
    28   13   15 1    
    29   14   83 1    
    30   15   16 1    
    31   15   84 1    
    32   15   85 1    
    33   16   17 1    
    34   17   18 1    
    35   17   86 1    
    36   17   87 1    
    37   18   19 1    
    38   18   37 1    
    39   18   88 1    
    40   19   20 am   BACKBONE|DICT|INTERRES
    41   19   89 1    
    42   20   21 2    
    43   20   22 1    
    44   22   23 1    
    45   22   24 1    
    46   22   90 1    
    47   23   91 1    
    48   23   92 1    
    49   23   93 1    
    50   24   25 am   BACKBONE|DICT|INTERRES
    51   24   94 1    
    52   25   26 2    
    53   25   27 1    
    54   27   28 1    
    55   27   29 1    
    56   27   95 1    
    57   28   96 1    
    58   28   97 1    
    59   28   98 1    
    60   29   30 am   BACKBONE|DICT|INTERRES
    61   29   99 1    
    62   30   31 2    
    63   30   32 1    
    64   32   33 1    
    65   32   34 1    
    66   32  100 1    
    67   33  101 1    
    68   33  102 1    
    69   33  103 1    
    70   34   35 am   BACKBONE|DICT|INTERRES
    71   34  104 1    
    72   35   36 2    
    73   37   38 2    
    74   37   39 am   BACKBONE|DICT|INTERRES
    75   39   40 1    
    76   39  105 1    
    77   40   41 1    
    78   40   42 1    
    79   40  106 1    
    80   41  107 1    
    81   41  108 1    
    82   41  109 1    
    83   42   43 2    
    84   42   44 am   BACKBONE|DICT|INTERRES
    85   44   45 1    
    86   44  110 1    
    87   45   46 1    
    88   45   47 1    
    89   45  111 1    
    90   46  112 1    
    91   46  113 1    
    92   46  114 1    
    93   47   48 2    
    94   47   49 am   BACKBONE|DICT|INTERRES
    95   49   50 1    
    96   49  115 1    
    97   50   51 1    
    98   50   52 1    
    99   50  116 1    
   100   51  117 1    
   101   51  118 1    
   102   51  119 1    
   103   52   53 2    
   104   52   54 am   BACKBONE|DICT|INTERRES
   105   54   55 1    
   106   54  120 1    
   107   55   56 1    
   108   55   57 1    
   109   55  121 1    
   110   56  122 1    
   111   56  123 1    
   112   56  124 1    
   113   57   58 2    
   114   57   59 am   BACKBONE|DICT|INTERRES
   115   59   60 1    
   116   59  125 1    
   117   60   61 1    
   118   60   62 1    
   119   60  126 1    
   120   61  127 1    
   121   61  128 1    
   122   61  129 1    
   123   62   63 2    
   124   62   64 am   BACKBONE|DICT|INTERRES
   125   64   65 1    
   126   64  130 1    
   127   65   66 1    
   128   65   69 1    
   129   65  131 1    
   130   66   67 am   BACKBONE|DICT|INTERRES
   131   66   68 2    
   132   67  132 1    
   133   67  133 1    
   134   69   70 1    
   135   69  134 1    
   136   69  135 1    
   137   70   71 1    
   138   71  136 1    
   139   71  137 1    
@<TRIPOS>SUBSTRUCTURE
     1 UNK         1 GROUP             0       ****    0 ROOT    
