@<TRIPOS>MOLECULE
3R136
137   139    1
SMALL
USER_CHARGES


@<TRIPOS>ATOM
      1 CA         28.6995   19.3385   -0.8669 C.3       0 UNK        -0.1979 
      2 C          28.9264   19.6147    0.6179 C.2       0 UNK         0.4864 
      3 O          28.8529   18.6844    1.4189 O.2       0 UNK        -0.5359 
      4 N          29.2085   20.8565    1.0417 N.am      1 UNK        -0.4318 
      5 CA         29.2955   22.0822    0.2335 C.3       1 UNK         0.0824 
      6 C6         29.9172   23.2551    1.0293 C.3       12 UNK        -0.0944 
      7 S7         31.6390   22.9231    1.5340 S.3       12 UNK        -0.2672 
      8 C8         31.4897   22.7181    3.3379 C.3       12 UNK         0.0333 
      9 C9         31.0900   24.0149    4.0266 C.ar      12 UNK        -0.0807 
     10 C10        32.0311   25.0313    4.2114 C.ar      12 UNK        -0.0894 
     11 C11        31.6697   26.2346    4.8282 C.ar      12 UNK        -0.0804 
     12 C12        30.3581   26.4020    5.2832 C.ar      12 UNK        -0.0824 
     13 C13        29.4096   25.3890    5.1103 C.ar      12 UNK        -0.0762 
     14 C14        29.7825   24.1971    4.4847 C.ar      12 UNK        -0.0782 
     15 C15        27.9859   25.5699    5.6155 C.3       12 UNK         0.0230 
     16 S16        27.1236   26.9360    4.7803 S.3       12 UNK        -0.2608 
     17 C17        27.0708   26.3808    3.0353 C.3       12 UNK        -0.0989 
     18 CA         28.0266   27.1724    2.1030 C.3       5 UNK         0.0716 
     19 N          27.9695   26.6916    0.7198 N.am      5 UNK        -0.4135 
     20 C          28.8418   27.0496   -0.2385 C.2       4 UNK         0.5031 
     21 O          29.8595   27.7027   -0.0065 O.2       4 UNK        -0.5229 
     22 CA         28.5531   26.6423   -1.6980 C.3       4 UNK         0.0329 
     23 CB         29.6842   25.7758   -2.2788 C.3       4 UNK        -0.2001 
     24 N          27.2664   25.9645   -1.8788 N.am      4 UNK        -0.4303 
     25 C          26.0870   26.5998   -1.9652 C.2       3 UNK         0.5044 
     26 O          25.9761   27.8260   -1.9651 O.2       3 UNK        -0.5152 
     27 CA         24.8079   25.7420   -2.0477 C.3       3 UNK         0.0319 
     28 CB         24.3030   25.6720   -3.4980 C.3       3 UNK        -0.2001 
     29 N          24.9476   24.3793   -1.5253 N.am      3 UNK        -0.4354 
     30 C          25.2775   24.0560   -0.2674 C.2       2 UNK         0.4964 
     31 O          25.5048   24.8869    0.6125 O.2       2 UNK        -0.5047 
     32 CA         25.4498   22.5591    0.0572 C.3       2 UNK         0.0288 
     33 CB         24.9446   21.6054   -1.0508 C.3       2 UNK        -0.2113 
     34 N          26.8427   22.2444    0.3982 N.am      2 UNK        -0.4145 
     35 C          27.9313   22.5094   -0.3437 C.2       1 UNK         0.5006 
     36 O          27.8944   23.0554   -1.4474 O.2       1 UNK        -0.5103 
     37 C          27.7407   28.6903    2.1311 C.2       5 UNK         0.5055 
     38 O          26.5936   29.1016    1.9440 O.2       5 UNK        -0.5220 
     39 N          28.7895   29.4842    2.3751 N.am      6 UNK        -0.4450 
     40 CA         28.7078   30.9332    2.5758 C.3       6 UNK         0.0367 
     41 CB         30.0151   31.5730    2.0799 C.3       6 UNK        -0.1929 
     42 C          28.4601   31.3120    4.0486 C.2       6 UNK         0.5070 
     43 O          28.2521   32.4919    4.3305 O.2       6 UNK        -0.5237 
     44 N          28.5319   30.3246    4.9584 N.am      7 UNK        -0.4739 
     45 CA         28.4885   30.4483    6.4247 C.3       7 UNK         0.0276 
     46 CB         27.1086   30.9517    6.8980 C.3       7 UNK        -0.1927 
     47 C          29.6601   31.2734    7.0031 C.2       7 UNK         0.5013 
     48 O          29.5343   31.8554    8.0820 O.2       7 UNK        -0.5193 
     49 N          30.7807   31.2964    6.2743 N.am      8 UNK        -0.4253 
     50 CA         32.0163   32.0192    6.5486 C.3       8 UNK         0.0242 
     51 CB         31.8092   33.5302    6.3199 C.3       8 UNK        -0.2000 
     52 C          33.0850   31.4648    5.5985 C.2       8 UNK         0.4948 
     53 O          32.7426   30.7465    4.6548 O.2       8 UNK        -0.5275 
     54 N          34.3506   31.8456    5.8248 N.am      9 UNK        -0.4246 
     55 CA         35.5406   31.4090    5.0733 C.3       9 UNK         0.0261 
     56 CB         36.7888   32.0558    5.6965 C.3       9 UNK        -0.1959 
     57 C          35.5109   31.6590    3.5497 C.2       9 UNK         0.5033 
     58 O          36.3049   31.0573    2.8247 O.2       9 UNK        -0.5390 
     59 N          34.5762   32.4983    3.0829 N.am      10 UNK        -0.4215 
     60 CA         34.2276   32.7092    1.6756 C.3       10 UNK         0.0240 
     61 CB         33.2204   33.8683    1.5866 C.3       10 UNK        -0.1982 
     62 C          33.6782   31.4564    0.9575 C.2       10 UNK         0.4970 
     63 O          33.5906   31.4760   -0.2707 O.2       10 UNK        -0.4916 
     64 N          33.3284   30.4000    1.7082 N.am      11 UNK        -0.4279 
     65 CA         32.9364   29.0797    1.1903 C.3       11 UNK         0.1003 
     66 C          34.0089   28.3584    0.3162 C.2       11 UNK         0.5709 
     67 N          35.2884   28.7038    0.4194 N.am      11 UNK        -0.7358 
     68 O          33.6724   27.4801   -0.4740 O.2       11 UNK        -0.4999 
     69 C69        32.4147   28.1615    2.3290 C.3       12 UNK        -0.0954 
     70 S70        33.6940   27.7016    3.5522 S.3       12 UNK        -0.2268 
     71 C71        32.6900   27.3499    5.0329 C.3       12 UNK         0.0203 
     72 H72        29.4499   19.8244   -1.4888 H         1 UNK         0.0888 
     73 H73        28.7587   18.2685   -1.0654 H         1 UNK         0.0888 
     74 H74        27.7110   19.6777   -1.1753 H         1 UNK         0.0888 
     75 H75        29.3871   20.9841    2.0264 H         1 UNK         0.3017 
     76 H76        29.9512   21.8816   -0.6157 H         1 UNK         0.0873 
     77 H77        29.9397   24.1646    0.4283 H         1 UNK         0.0745 
     78 H78        29.3034   23.4955    1.8968 H         1 UNK         0.0745 
     79 H79        32.4495   22.3818    3.7330 H         1 UNK         0.0705 
     80 H80        30.7763   21.9229    3.5579 H         1 UNK         0.0705 
     81 H81        33.0443   24.8886    3.8612 H         1 UNK         0.1334 
     82 H82        30.0705   27.3205    5.7758 H         1 UNK         0.1417 
     83 H83        29.0535   23.4089    4.3546 H         1 UNK         0.1562 
     84 H84        28.0133   25.7744    6.6867 H         1 UNK         0.0748 
     85 H85        27.4035   24.6552    5.4939 H         1 UNK         0.0748 
     86 H86        26.0400   26.4784    2.6896 H         1 UNK         0.0940 
     87 H87        27.2988   25.3152    2.9849 H         1 UNK         0.0940 
     88 H88        29.0435   27.0002    2.4642 H         1 UNK         0.0703 
     89 H89        27.1388   26.1690    0.4647 H         1 UNK         0.3081 
     90 H90        28.5356   27.5697   -2.2745 H         1 UNK         0.0719 
     91 H91        29.7838   24.8247   -1.7600 H         1 UNK         0.0809 
     92 H92        29.5155   25.5627   -3.3343 H         1 UNK         0.0809 
     93 H93        30.6456   26.2861   -2.2033 H         1 UNK         0.0809 
     94 H94        27.2841   24.9487   -1.8736 H         1 UNK         0.2990 
     95 H95        24.0478   26.2440   -1.4455 H         1 UNK         0.0690 
     96 H96        25.0104   25.1534   -4.1466 H         1 UNK         0.0788 
     97 H97        24.1561   26.6717   -3.9098 H         1 UNK         0.0788 
     98 H98        23.3453   25.1548   -3.5616 H         1 UNK         0.0788 
     99 H99        24.8186   23.6270   -2.1866 H         1 UNK         0.2993 
    100 H100       24.8544   22.3745    0.9529 H         1 UNK         0.0949 
    101 H101       25.5192   21.6967   -1.9734 H         1 UNK         0.0767 
    102 H102       25.0136   20.5665   -0.7276 H         1 UNK         0.0767 
    103 H103       23.8962   21.7930   -1.2875 H         1 UNK         0.0767 
    104 H104       26.9832   21.8115    1.3003 H         1 UNK         0.3013 
    105 H105       29.7068   29.0673    2.4361 H         1 UNK         0.3121 
    106 H106       27.8833   31.3384    1.9852 H         1 UNK         0.0774 
    107 H107       29.9522   32.6613    2.1160 H         1 UNK         0.0815 
    108 H108       30.8648   31.2783    2.6956 H         1 UNK         0.0815 
    109 H109       30.2322   31.2961    1.0479 H         1 UNK         0.0815 
    110 H110       28.6648   29.3870    4.6077 H         1 UNK         0.2987 
    111 H111       28.6166   29.4382    6.8172 H         1 UNK         0.0949 
    112 H112       26.9338   31.9886    6.6100 H         1 UNK         0.0806 
    113 H113       26.3029   30.3464    6.4825 H         1 UNK         0.0806 
    114 H114       27.0242   30.8990    7.9841 H         1 UNK         0.0806 
    115 H115       30.8249   30.7592    5.4166 H         1 UNK         0.3010 
    116 H116       32.3235   31.8283    7.5787 H         1 UNK         0.0829 
    117 H117       32.7264   34.0916    6.5009 H         1 UNK         0.0813 
    118 H118       31.4902   33.7408    5.2980 H         1 UNK         0.0813 
    119 H119       31.0523   33.9351    6.9917 H         1 UNK         0.0813 
    120 H120       34.5281   32.4551    6.6108 H         1 UNK         0.3038 
    121 H121       35.6165   30.3274    5.2040 H         1 UNK         0.0769 
    122 H122       37.6964   31.7272    5.1877 H         1 UNK         0.0811 
    123 H123       36.8958   31.7849    6.7470 H         1 UNK         0.0811 
    124 H124       36.7544   33.1439    5.6299 H         1 UNK         0.0811 
    125 H125       33.9691   32.9306    3.7630 H         1 UNK         0.3204 
    126 H126       35.1386   33.0030    1.1502 H         1 UNK         0.0748 
    127 H127       32.9455   34.0719    0.5506 H         1 UNK         0.0771 
    128 H128       32.3015   33.6467    2.1303 H         1 UNK         0.0771 
    129 H129       33.6381   34.7892    1.9941 H         1 UNK         0.0771 
    130 H130       33.3873   30.4715    2.7185 H         1 UNK         0.2980 
    131 H131       32.0932   29.2636    0.5224 H         1 UNK         0.0545 
    132 H132       35.5732   29.4093    1.0835 H         1 UNK         0.3459 
    133 H133       35.9751   28.2369   -0.1506 H         1 UNK         0.3459 
    134 H134       31.5998   28.6599    2.8541 H         1 UNK         0.0616 
    135 H135       31.9880   27.2458    1.9147 H         1 UNK         0.0616 
    136 H136       32.1952   28.2698    5.3453 H         1 UNK         0.0634 
    137 H137       33.3582   27.0678    5.8471 H         1 UNK         0.0634 
@<TRIPOS>BOND
     1    1    2 1    
     2    1   72 1    
     3    1   73 1    
     4    1   74 1    
     5    2    3 2    
     6    2    4 am   BACKBONE|DICT|INTERRES
     7    4    5 1    
     8    4   75 1    
     9    5    6 1    
    10    5   35 1    
    11    5   76 1    
    12    6    7 1    
    13    6   77 1    
    14    6   78 1    
    15    7    8 1    
    16    8    9 1    
    17    8   79 1    
    18    8   80 1    
    19    9   10 ar   
    20    9   14 ar   
    21   10   11 ar   
    22   10   81 1    
    23   11   12 ar   
    24   11   71 1    
    25   12   13 ar   
    26   12   82 1    
    27   13   14 ar   
    28   13   15 1    
    29   14   83 1    
    30   15   16 1    
    31   15   84 1    
    32   15   85 1    
    33   16   17 1    
    34   17   18 1    
    35   17   86 1    
    36   17   87 1    
    37   18   19 1    
    38   18   37 1    
    39   18   88 1    
    40   19   20 am   BACKBONE|DICT|INTERRES
    41   19   89 1    
    42   20   21 2    
    43   20   22 1    
    44   22   23 1    
    45   22   24 1    
    46   22   90 1    
    47   23   91 1    
    48   23   92 1    
    49   23   93 1    
    50   24   25 am   BACKBONE|DICT|INTERRES
    51   24   94 1    
    52   25   26 2    
    53   25   27 1    
    54   27   28 1    
    55   27   29 1    
    56   27   95 1    
    57   28   96 1    
    58   28   97 1    
    59   28   98 1    
    60   29   30 am   BACKBONE|DICT|INTERRES
    61   29   99 1    
    62   30   31 2    
    63   30   32 1    
    64   32   33 1    
    65   32   34 1    
    66   32  100 1    
    67   33  101 1    
    68   33  102 1    
    69   33  103 1    
    70   34   35 am   BACKBONE|DICT|INTERRES
    71   34  104 1    
    72   35   36 2    
    73   37   38 2    
    74   37   39 am   BACKBONE|DICT|INTERRES
    75   39   40 1    
    76   39  105 1    
    77   40   41 1    
    78   40   42 1    
    79   40  106 1    
    80   41  107 1    
    81   41  108 1    
    82   41  109 1    
    83   42   43 2    
    84   42   44 am   BACKBONE|DICT|INTERRES
    85   44   45 1    
    86   44  110 1    
    87   45   46 1    
    88   45   47 1    
    89   45  111 1    
    90   46  112 1    
    91   46  113 1    
    92   46  114 1    
    93   47   48 2    
    94   47   49 am   BACKBONE|DICT|INTERRES
    95   49   50 1    
    96   49  115 1    
    97   50   51 1    
    98   50   52 1    
    99   50  116 1    
   100   51  117 1    
   101   51  118 1    
   102   51  119 1    
   103   52   53 2    
   104   52   54 am   BACKBONE|DICT|INTERRES
   105   54   55 1    
   106   54  120 1    
   107   55   56 1    
   108   55   57 1    
   109   55  121 1    
   110   56  122 1    
   111   56  123 1    
   112   56  124 1    
   113   57   58 2    
   114   57   59 am   BACKBONE|DICT|INTERRES
   115   59   60 1    
   116   59  125 1    
   117   60   61 1    
   118   60   62 1    
   119   60  126 1    
   120   61  127 1    
   121   61  128 1    
   122   61  129 1    
   123   62   63 2    
   124   62   64 am   BACKBONE|DICT|INTERRES
   125   64   65 1    
   126   64  130 1    
   127   65   66 1    
   128   65   69 1    
   129   65  131 1    
   130   66   67 am   BACKBONE|DICT|INTERRES
   131   66   68 2    
   132   67  132 1    
   133   67  133 1    
   134   69   70 1    
   135   69  134 1    
   136   69  135 1    
   137   70   71 1    
   138   71  136 1    
   139   71  137 1    
@<TRIPOS>SUBSTRUCTURE
     1 UNK         1 GROUP             0       ****    0 ROOT    
