@<TRIPOS>MOLECULE
3R136
137   139    1
SMALL
USER_CHARGES


@<TRIPOS>ATOM
      1 CA         29.3624   23.5483   -3.0626 C.3       0 UNK        -0.1979 
      2 C          29.0713   22.6321   -1.8837 C.2       0 UNK         0.4864 
      3 O          28.7068   21.4733   -2.0864 O.2       0 UNK        -0.5359 
      4 N          29.2012   23.1483   -0.6538 N.am      1 UNK        -0.4318 
      5 CA         29.0058   22.4746    0.6395 C.3       1 UNK         0.0824 
      6 C6         29.9143   21.2274    0.8223 C.3       12 UNK        -0.0944 
      7 S7         30.4434   20.9800    2.5503 S.3       12 UNK        -0.2672 
      8 C8         32.1032   21.7361    2.5480 C.3       12 UNK         0.0333 
      9 C9         32.0299   23.2549    2.6182 C.ar      12 UNK        -0.0807 
     10 C10        31.9676   23.8937    3.8615 C.ar      12 UNK        -0.0894 
     11 C11        31.8894   25.2879    3.9432 C.ar      12 UNK        -0.0804 
     12 C12        31.8579   26.0375    2.7653 C.ar      12 UNK        -0.0824 
     13 C13        31.8952   25.4132    1.5172 C.ar      12 UNK        -0.0762 
     14 C14        32.0076   24.0214    1.4476 C.ar      12 UNK        -0.0782 
     15 C15        31.7598   26.2487    0.2544 C.3       12 UNK         0.0230 
     16 S16        30.0228   26.2680   -0.2907 S.3       12 UNK        -0.2608 
     17 C17        29.8359   27.9386   -1.0056 C.3       12 UNK        -0.0989 
     18 CA         28.9000   28.8644   -0.1862 C.3       5 UNK         0.0716 
     19 N          27.5678   28.2800    0.0132 N.am      5 UNK        -0.4135 
     20 C          26.4844   28.9429    0.4394 C.2       4 UNK         0.5031 
     21 O          26.4890   30.1536    0.6704 O.2       4 UNK        -0.5229 
     22 CA         25.1965   28.1213    0.6791 C.3       4 UNK         0.0329 
     23 CB         23.9509   29.0162    0.8265 C.3       4 UNK        -0.2001 
     24 N          24.9270   27.1019   -0.3435 N.am      4 UNK        -0.4303 
     25 C          25.5717   25.9361   -0.4723 C.2       3 UNK         0.5044 
     26 O          26.5467   25.6191    0.2130 O.2       3 UNK        -0.5152 
     27 CA         25.0901   25.0028   -1.5938 C.3       3 UNK         0.0319 
     28 CB         25.7815   25.3670   -2.9180 C.3       3 UNK        -0.2001 
     29 N          25.3995   23.6119   -1.2668 N.am      3 UNK        -0.4354 
     30 C          24.7095   22.8487   -0.4067 C.2       2 UNK         0.4964 
     31 O          23.6324   23.1758    0.0928 O.2       2 UNK        -0.5047 
     32 CA         25.3449   21.4983   -0.0266 C.3       2 UNK         0.0288 
     33 CB         24.9114   20.3964   -1.0067 C.3       2 UNK        -0.2113 
     34 N          26.8070   21.5826   -0.0045 N.am      2 UNK        -0.4145 
     35 C          27.5205   22.1928    0.9514 C.2       1 UNK         0.5006 
     36 O          27.0399   22.5707    2.0213 O.2       1 UNK        -0.5103 
     37 C          29.5510   29.3148    1.1380 C.2       5 UNK         0.5055 
     38 O          30.3570   30.2454    1.1256 O.2       5 UNK        -0.5220 
     39 N          29.1656   28.6811    2.2571 N.am      6 UNK        -0.4450 
     40 CA         29.6123   28.9726    3.6227 C.3       6 UNK         0.0367 
     41 CB         28.8977   28.0269    4.5997 C.3       6 UNK        -0.1929 
     42 C          29.4276   30.4331    4.0588 C.2       6 UNK         0.5070 
     43 O          30.2690   30.9405    4.7992 O.2       6 UNK        -0.5237 
     44 N          28.3735   31.0917    3.5573 N.am      7 UNK        -0.4739 
     45 CA         28.0859   32.5087    3.7951 C.3       7 UNK         0.0276 
     46 CB         26.6938   32.8383    3.2324 C.3       7 UNK        -0.1927 
     47 C          29.1440   33.4629    3.2091 C.2       7 UNK         0.5013 
     48 O          29.3133   34.5624    3.7377 O.2       7 UNK        -0.5193 
     49 N          29.8311   33.0306    2.1431 N.am      8 UNK        -0.4253 
     50 CA         30.9319   33.7571    1.5128 C.3       8 UNK         0.0242 
     51 CB         30.8016   33.6507   -0.0162 C.3       8 UNK        -0.2000 
     52 C          32.2911   33.2137    1.9765 C.2       8 UNK         0.4948 
     53 O          33.1908   34.0058    2.2584 O.2       8 UNK        -0.5275 
     54 N          32.4248   31.8804    2.0251 N.am      9 UNK        -0.4246 
     55 CA         33.6720   31.1775    2.3255 C.3       9 UNK         0.0261 
     56 CB         33.5381   29.7008    1.9194 C.3       9 UNK        -0.1959 
     57 C          34.1191   31.2919    3.7906 C.2       9 UNK         0.5033 
     58 O          35.3205   31.4286    4.0256 O.2       9 UNK        -0.5390 
     59 N          33.1646   31.2145    4.7351 N.am      10 UNK        -0.4215 
     60 CA         33.3613   31.2216    6.1928 C.3       10 UNK         0.0240 
     61 CB         33.7145   32.6449    6.6741 C.3       10 UNK        -0.1982 
     62 C          34.3758   30.1558    6.6609 C.2       10 UNK         0.4970 
     63 O          35.3763   30.4947    7.2974 O.2       10 UNK        -0.4916 
     64 N          34.1212   28.8955    6.2787 N.am      11 UNK        -0.4279 
     65 CA         35.0141   27.7475    6.5042 C.3       11 UNK         0.1003 
     66 C          35.3245   27.4455    8.0015 C.2       11 UNK         0.5709 
     67 N          36.4459   26.7934    8.2795 N.am      11 UNK        -0.7358 
     68 O          34.5518   27.7655    8.9038 O.2       11 UNK        -0.4999 
     69 C69        34.5467   26.4935    5.7087 C.3       12 UNK        -0.0954 
     70 S70        33.1317   25.5897    6.4329 S.3       12 UNK        -0.2268 
     71 C71        31.7703   25.9852    5.2938 C.3       12 UNK         0.0203 
     72 H72        28.5301   23.5334   -3.7657 H         1 UNK         0.0888 
     73 H73        29.5228   24.5798   -2.7509 H         1 UNK         0.0888 
     74 H74        30.2555   23.2090   -3.5864 H         1 UNK         0.0888 
     75 H75        29.4480   24.1284   -0.5692 H         1 UNK         0.3017 
     76 H76        29.3156   23.2256    1.3680 H         1 UNK         0.0873 
     77 H77        29.4191   20.3202    0.4709 H         1 UNK         0.0745 
     78 H78        30.8094   21.3173    0.2055 H         1 UNK         0.0745 
     79 H79        32.6625   21.4162    1.6675 H         1 UNK         0.0705 
     80 H80        32.6580   21.3579    3.4080 H         1 UNK         0.0705 
     81 H81        31.9707   23.3047    4.7686 H         1 UNK         0.1334 
     82 H82        31.7751   27.1103    2.8114 H         1 UNK         0.1417 
     83 H83        32.0377   23.5336    0.4829 H         1 UNK         0.1562 
     84 H84        32.3886   25.8461   -0.5411 H         1 UNK         0.0748 
     85 H85        32.1088   27.2651    0.4426 H         1 UNK         0.0748 
     86 H86        30.8132   28.4039   -1.1493 H         1 UNK         0.0940 
     87 H87        29.4276   27.8185   -2.0103 H         1 UNK         0.0940 
     88 H88        28.7586   29.7747   -0.7730 H         1 UNK         0.0703 
     89 H89        27.4919   27.2717   -0.0932 H         1 UNK         0.3081 
     90 H90        25.3394   27.6063    1.6315 H         1 UNK         0.0719 
     91 H91        23.7561   29.5875   -0.0820 H         1 UNK         0.0809 
     92 H92        23.0616   28.4270    1.0514 H         1 UNK         0.0809 
     93 H93        24.0729   29.7312    1.6415 H         1 UNK         0.0809 
     94 H94        24.1738   27.3065   -0.9850 H         1 UNK         0.2990 
     95 H95        24.0096   25.1096   -1.7126 H         1 UNK         0.0690 
     96 H96        26.8680   25.3212   -2.8333 H         1 UNK         0.0788 
     97 H97        25.5238   26.3805   -3.2283 H         1 UNK         0.0788 
     98 H98        25.4780   24.6971   -3.7229 H         1 UNK         0.0788 
     99 H99        26.2889   23.2662   -1.5907 H         1 UNK         0.2993 
    100 H100       24.9932   21.2316    0.9726 H         1 UNK         0.0949 
    101 H101       25.2480   20.6031   -2.0236 H         1 UNK         0.0767 
    102 H102       25.3112   19.4258   -0.7122 H         1 UNK         0.0767 
    103 H103       23.8246   20.3044   -1.0337 H         1 UNK         0.0767 
    104 H104       27.3090   21.3075   -0.8463 H         1 UNK         0.3013 
    105 H105       28.5126   27.9181    2.1535 H         1 UNK         0.3121 
    106 H106       30.6815   28.7750    3.6707 H         1 UNK         0.0774 
    107 H107       29.2483   28.1818    5.6212 H         1 UNK         0.0815 
    108 H108       27.8186   28.1865    4.5987 H         1 UNK         0.0815 
    109 H109       29.0804   26.9818    4.3493 H         1 UNK         0.0815 
    110 H110       27.7503   30.6008    2.9303 H         1 UNK         0.2987 
    111 H111       28.0686   32.6691    4.8754 H         1 UNK         0.0949 
    112 H112       26.6434   32.6682    2.1559 H         1 UNK         0.0806 
    113 H113       25.9206   32.2314    3.7038 H         1 UNK         0.0806 
    114 H114       26.4373   33.8836    3.4106 H         1 UNK         0.0806 
    115 H115       29.6510   32.0942    1.8003 H         1 UNK         0.3010 
    116 H116       30.8866   34.8154    1.7794 H         1 UNK         0.0829 
    117 H117       31.6124   34.1840   -0.5145 H         1 UNK         0.0813 
    118 H118       30.8333   32.6152   -0.3578 H         1 UNK         0.0813 
    119 H119       29.8654   34.0880   -0.3634 H         1 UNK         0.0813 
    120 H120       31.6400   31.3001    1.7316 H         1 UNK         0.3038 
    121 H121       34.4568   31.6224    1.7096 H         1 UNK         0.0769 
    122 H122       33.3155   29.6010    0.8568 H         1 UNK         0.0811 
    123 H123       32.7444   29.2042    2.4748 H         1 UNK         0.0811 
    124 H124       34.4632   29.1549    2.1103 H         1 UNK         0.0811 
    125 H125       32.1943   31.1304    4.4438 H         1 UNK         0.3204 
    126 H126       32.4026   30.9524    6.6389 H         1 UNK         0.0748 
    127 H127       33.7875   32.6837    7.7617 H         1 UNK         0.0771 
    128 H128       34.6691   32.9840    6.2699 H         1 UNK         0.0771 
    129 H129       32.9510   33.3630    6.3746 H         1 UNK         0.0771 
    130 H130       33.2662   28.7020    5.7831 H         1 UNK         0.2980 
    131 H131       35.9659   28.0510    6.0632 H         1 UNK         0.0545 
    132 H132       36.6598   26.5765    9.2404 H         1 UNK         0.3459 
    133 H133       37.0817   26.5123    7.5495 H         1 UNK         0.3459 
    134 H134       34.3189   26.7652    4.6767 H         1 UNK         0.0616 
    135 H135       35.3724   25.7837    5.6392 H         1 UNK         0.0616 
    136 H136       30.8326   25.6791    5.7592 H         1 UNK         0.0634 
    137 H137       31.7160   27.0677    5.1768 H         1 UNK         0.0634 
@<TRIPOS>BOND
     1    1    2 1    
     2    1   72 1    
     3    1   73 1    
     4    1   74 1    
     5    2    3 2    
     6    2    4 am   BACKBONE|DICT|INTERRES
     7    4    5 1    
     8    4   75 1    
     9    5    6 1    
    10    5   35 1    
    11    5   76 1    
    12    6    7 1    
    13    6   77 1    
    14    6   78 1    
    15    7    8 1    
    16    8    9 1    
    17    8   79 1    
    18    8   80 1    
    19    9   10 ar   
    20    9   14 ar   
    21   10   11 ar   
    22   10   81 1    
    23   11   12 ar   
    24   11   71 1    
    25   12   13 ar   
    26   12   82 1    
    27   13   14 ar   
    28   13   15 1    
    29   14   83 1    
    30   15   16 1    
    31   15   84 1    
    32   15   85 1    
    33   16   17 1    
    34   17   18 1    
    35   17   86 1    
    36   17   87 1    
    37   18   19 1    
    38   18   37 1    
    39   18   88 1    
    40   19   20 am   BACKBONE|DICT|INTERRES
    41   19   89 1    
    42   20   21 2    
    43   20   22 1    
    44   22   23 1    
    45   22   24 1    
    46   22   90 1    
    47   23   91 1    
    48   23   92 1    
    49   23   93 1    
    50   24   25 am   BACKBONE|DICT|INTERRES
    51   24   94 1    
    52   25   26 2    
    53   25   27 1    
    54   27   28 1    
    55   27   29 1    
    56   27   95 1    
    57   28   96 1    
    58   28   97 1    
    59   28   98 1    
    60   29   30 am   BACKBONE|DICT|INTERRES
    61   29   99 1    
    62   30   31 2    
    63   30   32 1    
    64   32   33 1    
    65   32   34 1    
    66   32  100 1    
    67   33  101 1    
    68   33  102 1    
    69   33  103 1    
    70   34   35 am   BACKBONE|DICT|INTERRES
    71   34  104 1    
    72   35   36 2    
    73   37   38 2    
    74   37   39 am   BACKBONE|DICT|INTERRES
    75   39   40 1    
    76   39  105 1    
    77   40   41 1    
    78   40   42 1    
    79   40  106 1    
    80   41  107 1    
    81   41  108 1    
    82   41  109 1    
    83   42   43 2    
    84   42   44 am   BACKBONE|DICT|INTERRES
    85   44   45 1    
    86   44  110 1    
    87   45   46 1    
    88   45   47 1    
    89   45  111 1    
    90   46  112 1    
    91   46  113 1    
    92   46  114 1    
    93   47   48 2    
    94   47   49 am   BACKBONE|DICT|INTERRES
    95   49   50 1    
    96   49  115 1    
    97   50   51 1    
    98   50   52 1    
    99   50  116 1    
   100   51  117 1    
   101   51  118 1    
   102   51  119 1    
   103   52   53 2    
   104   52   54 am   BACKBONE|DICT|INTERRES
   105   54   55 1    
   106   54  120 1    
   107   55   56 1    
   108   55   57 1    
   109   55  121 1    
   110   56  122 1    
   111   56  123 1    
   112   56  124 1    
   113   57   58 2    
   114   57   59 am   BACKBONE|DICT|INTERRES
   115   59   60 1    
   116   59  125 1    
   117   60   61 1    
   118   60   62 1    
   119   60  126 1    
   120   61  127 1    
   121   61  128 1    
   122   61  129 1    
   123   62   63 2    
   124   62   64 am   BACKBONE|DICT|INTERRES
   125   64   65 1    
   126   64  130 1    
   127   65   66 1    
   128   65   69 1    
   129   65  131 1    
   130   66   67 am   BACKBONE|DICT|INTERRES
   131   66   68 2    
   132   67  132 1    
   133   67  133 1    
   134   69   70 1    
   135   69  134 1    
   136   69  135 1    
   137   70   71 1    
   138   71  136 1    
   139   71  137 1    
@<TRIPOS>SUBSTRUCTURE
     1 UNK         1 GROUP             0       ****    0 ROOT    
