@<TRIPOS>MOLECULE
3R136
137   139    1
SMALL
USER_CHARGES


@<TRIPOS>ATOM
      1 CA         35.7656   24.4402   -1.1935 C.3       0 UNK        -0.1979 
      2 C          34.6179   24.8489   -0.2819 C.2       0 UNK         0.4864 
      3 O          34.8016   25.7040    0.5863 O.2       0 UNK        -0.5359 
      4 N          33.4404   24.2379   -0.4648 N.am      1 UNK        -0.4318 
      5 CA         32.2220   24.5496    0.2866 C.3       1 UNK         0.0824 
      6 C6         31.1679   23.4173    0.1919 C.3       12 UNK        -0.0944 
      7 S7         31.6938   21.8393    0.9395 S.3       12 UNK        -0.2672 
      8 C8         32.0379   22.2853    2.6774 C.3       12 UNK         0.0333 
      9 C9         30.9561   23.1477    3.3217 C.ar      12 UNK        -0.0807 
     10 C10        31.2789   24.4101    3.8290 C.ar      12 UNK        -0.0894 
     11 C11        30.3102   25.1937    4.4617 C.ar      12 UNK        -0.0804 
     12 C12        29.0036   24.7104    4.5792 C.ar      12 UNK        -0.0824 
     13 C13        28.6648   23.4510    4.0731 C.ar      12 UNK        -0.0762 
     14 C14        29.6458   22.6748    3.4459 C.ar      12 UNK        -0.0782 
     15 C15        27.2545   22.9025    4.2421 C.3       12 UNK         0.0230 
     16 S16        26.1339   23.4545    2.9165 S.3       12 UNK        -0.2608 
     17 C17        25.5778   25.0832    3.5312 C.3       12 UNK        -0.0989 
     18 CA         26.0101   26.2538    2.6045 C.3       5 UNK         0.0716 
     19 N          25.5190   26.1169    1.2265 N.am      5 UNK        -0.4135 
     20 C          24.2405   26.1681    0.8149 C.2       4 UNK         0.5031 
     21 O          23.2785   26.1917    1.5842 O.2       4 UNK        -0.5229 
     22 CA         23.9853   26.2619   -0.7072 C.3       4 UNK         0.0329 
     23 CB         22.7892   27.1822   -1.0323 C.3       4 UNK        -0.2001 
     24 N          25.1586   26.6630   -1.4983 N.am      4 UNK        -0.4303 
     25 C          25.8920   27.7780   -1.3637 C.2       3 UNK         0.5044 
     26 O          25.6670   28.6741   -0.5430 O.2       3 UNK        -0.5152 
     27 CA         27.1612   27.8469   -2.2274 C.3       3 UNK         0.0319 
     28 CB         27.0697   28.9872   -3.2528 C.3       3 UNK        -0.2001 
     29 N          28.3522   28.0205   -1.3916 N.am      3 UNK        -0.4354 
     30 C          28.7370   27.1718   -0.4278 C.2       2 UNK         0.4964 
     31 O          28.1602   26.1112   -0.1711 O.2       2 UNK        -0.5047 
     32 CA         29.9263   27.6068    0.4395 C.3       2 UNK         0.0288 
     33 CB         29.4184   28.1891    1.7670 C.3       2 UNK        -0.2113 
     34 N          30.7990   26.4730    0.7292 N.am      2 UNK        -0.4145 
     35 C          31.5936   25.8789   -0.1694 C.2       1 UNK         0.5006 
     36 O          31.7870   26.3066   -1.3112 O.2       1 UNK        -0.5103 
     37 C          25.6885   27.6438    3.2183 C.2       5 UNK         0.5055 
     38 O          25.7308   27.7818    4.4423 O.2       5 UNK        -0.5220 
     39 N          25.3598   28.6413    2.3810 N.am      6 UNK        -0.4450 
     40 CA         24.8429   29.9486    2.7947 C.3       6 UNK         0.0367 
     41 CB         23.4903   30.1809    2.1005 C.3       6 UNK        -0.1929 
     42 C          25.8043   31.1000    2.4677 C.2       6 UNK         0.5070 
     43 O          25.7944   32.1047    3.1807 O.2       6 UNK        -0.5237 
     44 N          26.5977   30.9579    1.3975 N.am      7 UNK        -0.4739 
     45 CA         27.5970   31.9414    0.9662 C.3       7 UNK         0.0276 
     46 CB         27.9779   31.6357   -0.4919 C.3       7 UNK        -0.1927 
     47 C          28.8450   31.9750    1.8732 C.2       7 UNK         0.5013 
     48 O          28.9638   31.1835    2.8111 O.2       7 UNK        -0.5193 
     49 N          29.7728   32.8892    1.5642 N.am      8 UNK        -0.4253 
     50 CA         31.0917   32.9583    2.1947 C.3       8 UNK         0.0242 
     51 CB         31.7135   34.3374    1.9197 C.3       8 UNK        -0.2000 
     52 C          32.0085   31.8383    1.6722 C.2       8 UNK         0.4948 
     53 O          31.9996   31.5525    0.4723 O.2       8 UNK        -0.5275 
     54 N          32.8039   31.2606    2.5759 N.am      9 UNK        -0.4246 
     55 CA         33.8130   30.2312    2.3374 C.3       9 UNK         0.0261 
     56 CB         33.1522   28.8842    1.9786 C.3       9 UNK        -0.1959 
     57 C          34.6508   30.1034    3.6163 C.2       9 UNK         0.5033 
     58 O          34.2945   30.6996    4.6382 O.2       9 UNK        -0.5390 
     59 N          35.7315   29.3132    3.5517 N.am      10 UNK        -0.4215 
     60 CA         36.5732   28.9746    4.7058 C.3       10 UNK         0.0240 
     61 CB         37.8306   28.2269    4.2319 C.3       10 UNK        -0.1982 
     62 C          35.8172   28.1556    5.7682 C.2       10 UNK         0.4970 
     63 O          35.9738   28.4228    6.9599 O.2       10 UNK        -0.4916 
     64 N          34.9931   27.2033    5.3051 N.am      11 UNK        -0.4279 
     65 CA         34.0660   26.3934    6.1130 C.3       11 UNK         0.1003 
     66 C          34.7425   25.4613    7.1679 C.2       11 UNK         0.5709 
     67 N          36.0037   25.0857    6.9888 N.am      11 UNK        -0.7358 
     68 O          34.1220   25.0499    8.1452 O.2       11 UNK        -0.4999 
     69 C69        32.8949   27.2582    6.6705 C.3       12 UNK        -0.0954 
     70 S70        31.3109   26.3558    6.7464 S.3       12 UNK        -0.2268 
     71 C71        30.6858   26.5465    5.0464 C.3       12 UNK         0.0203 
     72 H72        36.5964   24.0575   -0.6017 H         1 UNK         0.0888 
     73 H73        35.4685   23.6665   -1.9012 H         1 UNK         0.0888 
     74 H74        36.1182   25.3013   -1.7603 H         1 UNK         0.0888 
     75 H75        33.3394   23.5535   -1.2002 H         1 UNK         0.3017 
     76 H76        32.5100   24.6811    1.3291 H         1 UNK         0.0873 
     77 H77        30.2310   23.7084    0.6722 H         1 UNK         0.0745 
     78 H78        30.9120   23.2255   -0.8520 H         1 UNK         0.0745 
     79 H79        33.0084   22.7817    2.7226 H         1 UNK         0.0705 
     80 H80        32.1459   21.3670    3.2561 H         1 UNK         0.0705 
     81 H81        32.2927   24.7762    3.7515 H         1 UNK         0.1334 
     82 H82        28.2572   25.3081    5.0837 H         1 UNK         0.1417 
     83 H83        29.3942   21.6959    3.0603 H         1 UNK         0.1562 
     84 H84        26.8524   23.1781    5.2181 H         1 UNK         0.0748 
     85 H85        27.2814   21.8118    4.2334 H         1 UNK         0.0748 
     86 H86        25.9609   25.2296    4.5416 H         1 UNK         0.0940 
     87 H87        24.4922   25.0569    3.6358 H         1 UNK         0.0940 
     88 H88        27.0964   26.2158    2.5294 H         1 UNK         0.0703 
     89 H89        26.2510   26.0658    0.5248 H         1 UNK         0.3081 
     90 H90        23.7278   25.2524   -1.0309 H         1 UNK         0.0719 
     91 H91        22.9529   28.1990   -0.6737 H         1 UNK         0.0809 
     92 H92        22.6056   27.2308   -2.1055 H         1 UNK         0.0809 
     93 H93        21.8728   26.8176   -0.5665 H         1 UNK         0.0809 
     94 H94        25.4689   25.9791   -2.1753 H         1 UNK         0.2990 
     95 H95        27.2778   26.9078   -2.7726 H         1 UNK         0.0690 
     96 H96        27.9612   29.0334   -3.8787 H         1 UNK         0.0788 
     97 H97        26.9444   29.9572   -2.7733 H         1 UNK         0.0788 
     98 H98        26.2163   28.8434   -3.9169 H         1 UNK         0.0788 
     99 H99        28.8770   28.8703   -1.5334 H         1 UNK         0.2993 
    100 H100       30.4952   28.3721   -0.0933 H         1 UNK         0.0949 
    101 H101       30.2018   28.7392    2.2866 H         1 UNK         0.0767 
    102 H102       28.5952   28.8837    1.6017 H         1 UNK         0.0767 
    103 H103       29.0546   27.4151    2.4416 H         1 UNK         0.0767 
    104 H104       30.6496   26.0173    1.6173 H         1 UNK         0.3013 
    105 H105       25.3824   28.4686    1.3798 H         1 UNK         0.3121 
    106 H106       24.6734   29.9672    3.8733 H         1 UNK         0.0774 
    107 H107       23.0565   31.1366    2.3978 H         1 UNK         0.0815 
    108 H108       23.5908   30.1901    1.0142 H         1 UNK         0.0815 
    109 H109       22.7730   29.4027    2.3625 H         1 UNK         0.0815 
    110 H110       26.5118   30.1190    0.8379 H         1 UNK         0.2987 
    111 H111       27.1375   32.9318    1.0034 H         1 UNK         0.0949 
    112 H112       28.4942   30.6807   -0.5766 H         1 UNK         0.0806 
    113 H113       27.0934   31.6041   -1.1277 H         1 UNK         0.0806 
    114 H114       28.6374   32.3993   -0.9054 H         1 UNK         0.0806 
    115 H115       29.6270   33.4831    0.7611 H         1 UNK         0.3010 
    116 H116       30.9677   32.8448    3.2743 H         1 UNK         0.0829 
    117 H117       31.0860   35.1408    2.3064 H         1 UNK         0.0813 
    118 H118       32.6881   34.4287    2.4011 H         1 UNK         0.0813 
    119 H119       31.8607   34.5092    0.8525 H         1 UNK         0.0813 
    120 H120       32.7872   31.5699    3.5421 H         1 UNK         0.3038 
    121 H121       34.4639   30.5570    1.5237 H         1 UNK         0.0769 
    122 H122       32.5159   28.5231    2.7863 H         1 UNK         0.0811 
    123 H123       33.8969   28.1128    1.7803 H         1 UNK         0.0811 
    124 H124       32.5432   28.9658    1.0796 H         1 UNK         0.0811 
    125 H125       35.9656   28.8765    2.6711 H         1 UNK         0.3204 
    126 H126       36.8899   29.9092    5.1742 H         1 UNK         0.0748 
    127 H127       38.4759   27.9765    5.0752 H         1 UNK         0.0771 
    128 H128       37.5834   27.2948    3.7220 H         1 UNK         0.0771 
    129 H129       38.4197   28.8375    3.5472 H         1 UNK         0.0771 
    130 H130       34.9630   27.0411    4.3099 H         1 UNK         0.2980 
    131 H131       33.6413   25.6977    5.3909 H         1 UNK         0.0545 
    132 H132       36.4375   24.4787    7.6663 H         1 UNK         0.3459 
    133 H133       36.5269   25.4089    6.1914 H         1 UNK         0.3459 
    134 H134       32.7379   28.1440    6.0524 H         1 UNK         0.0616 
    135 H135       33.1340   27.6404    7.6644 H         1 UNK         0.0616 
    136 H136       31.4340   27.0244    4.4132 H         1 UNK         0.0634 
    137 H137       29.8222   27.2134    5.0555 H         1 UNK         0.0634 
@<TRIPOS>BOND
     1    1    2 1    
     2    1   72 1    
     3    1   73 1    
     4    1   74 1    
     5    2    3 2    
     6    2    4 am   BACKBONE|DICT|INTERRES
     7    4    5 1    
     8    4   75 1    
     9    5    6 1    
    10    5   35 1    
    11    5   76 1    
    12    6    7 1    
    13    6   77 1    
    14    6   78 1    
    15    7    8 1    
    16    8    9 1    
    17    8   79 1    
    18    8   80 1    
    19    9   10 ar   
    20    9   14 ar   
    21   10   11 ar   
    22   10   81 1    
    23   11   12 ar   
    24   11   71 1    
    25   12   13 ar   
    26   12   82 1    
    27   13   14 ar   
    28   13   15 1    
    29   14   83 1    
    30   15   16 1    
    31   15   84 1    
    32   15   85 1    
    33   16   17 1    
    34   17   18 1    
    35   17   86 1    
    36   17   87 1    
    37   18   19 1    
    38   18   37 1    
    39   18   88 1    
    40   19   20 am   BACKBONE|DICT|INTERRES
    41   19   89 1    
    42   20   21 2    
    43   20   22 1    
    44   22   23 1    
    45   22   24 1    
    46   22   90 1    
    47   23   91 1    
    48   23   92 1    
    49   23   93 1    
    50   24   25 am   BACKBONE|DICT|INTERRES
    51   24   94 1    
    52   25   26 2    
    53   25   27 1    
    54   27   28 1    
    55   27   29 1    
    56   27   95 1    
    57   28   96 1    
    58   28   97 1    
    59   28   98 1    
    60   29   30 am   BACKBONE|DICT|INTERRES
    61   29   99 1    
    62   30   31 2    
    63   30   32 1    
    64   32   33 1    
    65   32   34 1    
    66   32  100 1    
    67   33  101 1    
    68   33  102 1    
    69   33  103 1    
    70   34   35 am   BACKBONE|DICT|INTERRES
    71   34  104 1    
    72   35   36 2    
    73   37   38 2    
    74   37   39 am   BACKBONE|DICT|INTERRES
    75   39   40 1    
    76   39  105 1    
    77   40   41 1    
    78   40   42 1    
    79   40  106 1    
    80   41  107 1    
    81   41  108 1    
    82   41  109 1    
    83   42   43 2    
    84   42   44 am   BACKBONE|DICT|INTERRES
    85   44   45 1    
    86   44  110 1    
    87   45   46 1    
    88   45   47 1    
    89   45  111 1    
    90   46  112 1    
    91   46  113 1    
    92   46  114 1    
    93   47   48 2    
    94   47   49 am   BACKBONE|DICT|INTERRES
    95   49   50 1    
    96   49  115 1    
    97   50   51 1    
    98   50   52 1    
    99   50  116 1    
   100   51  117 1    
   101   51  118 1    
   102   51  119 1    
   103   52   53 2    
   104   52   54 am   BACKBONE|DICT|INTERRES
   105   54   55 1    
   106   54  120 1    
   107   55   56 1    
   108   55   57 1    
   109   55  121 1    
   110   56  122 1    
   111   56  123 1    
   112   56  124 1    
   113   57   58 2    
   114   57   59 am   BACKBONE|DICT|INTERRES
   115   59   60 1    
   116   59  125 1    
   117   60   61 1    
   118   60   62 1    
   119   60  126 1    
   120   61  127 1    
   121   61  128 1    
   122   61  129 1    
   123   62   63 2    
   124   62   64 am   BACKBONE|DICT|INTERRES
   125   64   65 1    
   126   64  130 1    
   127   65   66 1    
   128   65   69 1    
   129   65  131 1    
   130   66   67 am   BACKBONE|DICT|INTERRES
   131   66   68 2    
   132   67  132 1    
   133   67  133 1    
   134   69   70 1    
   135   69  134 1    
   136   69  135 1    
   137   70   71 1    
   138   71  136 1    
   139   71  137 1    
@<TRIPOS>SUBSTRUCTURE
     1 UNK         1 GROUP             0       ****    0 ROOT    
