@<TRIPOS>MOLECULE
3R136
137   139    1
SMALL
USER_CHARGES


@<TRIPOS>ATOM
      1 CA         27.5047   18.4134   -0.8658 C.3       0 UNK        -0.1979 
      2 C          27.8885   19.8735   -0.6702 C.2       0 UNK         0.4864 
      3 O          27.1705   20.5963    0.0215 O.2       0 UNK        -0.5359 
      4 N          29.0187   20.2869   -1.2637 N.am      1 UNK        -0.4318 
      5 CA         29.5825   21.6439   -1.2997 C.3       1 UNK         0.0824 
      6 C6         29.6802   22.3274    0.0917 C.3       12 UNK        -0.0944 
      7 S7         31.0116   23.5757    0.1877 S.3       12 UNK        -0.2672 
      8 C8         31.8759   23.1121    1.7287 C.3       12 UNK         0.0333 
      9 C9         31.2357   23.7033    2.9838 C.ar      12 UNK        -0.0807 
     10 C10        31.9669   24.5652    3.8107 C.ar      12 UNK        -0.0894 
     11 C11        31.4071   25.0659    4.9920 C.ar      12 UNK        -0.0804 
     12 C12        30.0982   24.7182    5.3370 C.ar      12 UNK        -0.0824 
     13 C13        29.3524   23.8720    4.5130 C.ar      12 UNK        -0.0762 
     14 C14        29.9304   23.3587    3.3497 C.ar      12 UNK        -0.0782 
     15 C15        27.9229   23.4996    4.8716 C.3       12 UNK         0.0230 
     16 S16        26.7269   24.5368    3.9732 S.3       12 UNK        -0.2608 
     17 C17        26.7782   26.0868    4.9356 C.3       12 UNK        -0.0989 
     18 CA         27.6066   27.2131    4.2625 C.3       5 UNK         0.0716 
     19 N          27.1369   27.4848    2.8957 N.am      5 UNK        -0.4135 
     20 C          27.4281   28.5211    2.0965 C.2       4 UNK         0.5031 
     21 O          28.0892   29.5087    2.4265 O.2       4 UNK        -0.5229 
     22 CA         26.8944   28.4394    0.6619 C.3       4 UNK         0.0329 
     23 CB         26.1015   29.7020    0.2877 C.3       4 UNK        -0.2001 
     24 N          28.0163   28.2703   -0.2645 N.am      4 UNK        -0.4303 
     25 C          28.4616   27.0780   -0.6807 C.2       3 UNK         0.5044 
     26 O          27.9847   26.0052   -0.3017 O.2       3 UNK        -0.5152 
     27 CA         29.6300   27.0841   -1.6843 C.3       3 UNK         0.0319 
     28 CB         30.9850   27.2442   -0.9796 C.3       3 UNK        -0.2001 
     29 N          29.6696   25.8325   -2.4365 N.am      3 UNK        -0.4354 
     30 C          28.9683   25.5710   -3.5468 C.2       2 UNK         0.4964 
     31 O          28.2246   26.3849   -4.0961 O.2       2 UNK        -0.5047 
     32 CA         29.1427   24.1724   -4.1679 C.3       2 UNK         0.0288 
     33 CB         30.1114   24.2328   -5.3611 C.3       2 UNK        -0.2113 
     34 N          29.6364   23.1863   -3.2010 N.am      2 UNK        -0.4145 
     35 C          28.8547   22.5309   -2.3322 C.2       1 UNK         0.5006 
     36 O          27.6248   22.6211   -2.3258 O.2       1 UNK        -0.5103 
     37 C          27.6357   28.4610    5.1712 C.2       5 UNK         0.5055 
     38 O          26.5908   28.8649    5.6853 O.2       5 UNK        -0.5220 
     39 N          28.8316   29.0494    5.3235 N.am      6 UNK        -0.4450 
     40 CA         29.1591   30.2513    6.1036 C.3       6 UNK         0.0367 
     41 CB         28.9898   29.9755    7.6119 C.3       6 UNK        -0.1929 
     42 C          28.4383   31.5446    5.6595 C.2       6 UNK         0.5070 
     43 O          28.4753   32.5326    6.3946 O.2       6 UNK        -0.5237 
     44 N          27.8182   31.5359    4.4734 N.am      7 UNK        -0.4739 
     45 CA         27.1172   32.6736    3.8740 C.3       7 UNK         0.0276 
     46 CB         25.7008   32.2366    3.4665 C.3       7 UNK        -0.1927 
     47 C          27.8874   33.2081    2.6597 C.2       7 UNK         0.5013 
     48 O          27.9769   34.4239    2.4854 O.2       7 UNK        -0.5193 
     49 N          28.4501   32.2949    1.8617 N.am      8 UNK        -0.4253 
     50 CA         29.3139   32.5689    0.7202 C.3       8 UNK         0.0242 
     51 CB         28.4864   32.9418   -0.5273 C.3       8 UNK        -0.2000 
     52 C          30.1819   31.3235    0.5286 C.2       8 UNK         0.4948 
     53 O          29.9711   30.5590   -0.4155 O.2       8 UNK        -0.5275 
     54 N          31.0919   31.1143    1.4849 N.am      9 UNK        -0.4246 
     55 CA         32.0089   29.9865    1.5780 C.3       9 UNK         0.0261 
     56 CB         31.2788   28.7666    2.1676 C.3       9 UNK        -0.1959 
     57 C          33.1712   30.4027    2.4823 C.2       9 UNK         0.5033 
     58 O          32.9703   31.2035    3.4007 O.2       9 UNK        -0.5390 
     59 N          34.3568   29.8326    2.2394 N.am      10 UNK        -0.4215 
     60 CA         35.5862   30.0880    2.9975 C.3       10 UNK         0.0240 
     61 CB         36.7987   29.8244    2.0837 C.3       10 UNK        -0.1982 
     62 C          35.6374   29.2718    4.3053 C.2       10 UNK         0.4970 
     63 O          36.5976   28.5342    4.5357 O.2       10 UNK        -0.4916 
     64 N          34.5918   29.4037    5.1287 N.am      11 UNK        -0.4279 
     65 CA         34.4326   28.6940    6.4086 C.3       11 UNK         0.1003 
     66 C          35.2585   29.2914    7.5849 C.2       11 UNK         0.5709 
     67 N          35.8759   30.4587    7.4432 N.am      11 UNK        -0.7358 
     68 O          35.3496   28.6768    8.6450 O.2       11 UNK        -0.4999 
     69 C69        32.9396   28.5320    6.7988 C.3       12 UNK        -0.0954 
     70 S70        31.9499   27.7159    5.5041 S.3       12 UNK        -0.2268 
     71 C71        32.2174   25.9678    5.9092 C.3       12 UNK         0.0203 
     72 H72        26.5306   18.3440   -1.3494 H         1 UNK         0.0888 
     73 H73        28.2272   17.8782   -1.4817 H         1 UNK         0.0888 
     74 H74        27.4430   17.9093    0.0984 H         1 UNK         0.0888 
     75 H75        29.5319   19.6140   -1.8166 H         1 UNK         0.3017 
     76 H76        30.6016   21.4889   -1.6589 H         1 UNK         0.0873 
     77 H77        28.7346   22.7964    0.3726 H         1 UNK         0.0745 
     78 H78        29.8716   21.5625    0.8447 H         1 UNK         0.0745 
     79 H79        32.9090   23.4520    1.6424 H         1 UNK         0.0705 
     80 H80        31.9280   22.0265    1.8199 H         1 UNK         0.0705 
     81 H81        32.9802   24.8354    3.5463 H         1 UNK         0.1334 
     82 H82        29.6610   25.1095    6.2455 H         1 UNK         0.1417 
     83 H83        29.3495   22.6924    2.7309 H         1 UNK         0.1562 
     84 H84        27.7557   23.5744    5.9472 H         1 UNK         0.0748 
     85 H85        27.7432   22.4552    4.6120 H         1 UNK         0.0748 
     86 H86        27.1599   25.8766    5.9365 H         1 UNK         0.0940 
     87 H87        25.7451   26.4110    5.0776 H         1 UNK         0.0940 
     88 H88        28.6320   26.8539    4.1585 H         1 UNK         0.0703 
     89 H89        26.5955   26.7313    2.4967 H         1 UNK         0.3081 
     90 H90        26.2110   27.5913    0.5776 H         1 UNK         0.0719 
     91 H91        26.6937   30.6068    0.4095 H         1 UNK         0.0809 
     92 H92        25.7584   29.6632   -0.7462 H         1 UNK         0.0809 
     93 H93        25.2176   29.8047    0.9180 H         1 UNK         0.0809 
     94 H94        28.5390   29.1070   -0.5095 H         1 UNK         0.2990 
     95 H95        29.4968   27.9157   -2.3800 H         1 UNK         0.0690 
     96 H96        31.8166   27.0239   -1.6492 H         1 UNK         0.0788 
     97 H97        31.0743   26.5945   -0.1080 H         1 UNK         0.0788 
     98 H98        31.1194   28.2699   -0.6485 H         1 UNK         0.0788 
     99 H99        30.1923   25.0811   -2.0112 H         1 UNK         0.2993 
    100 H100       28.1655   23.8547   -4.5393 H         1 UNK         0.0949 
    101 H101       31.1092   24.5522   -5.0574 H         1 UNK         0.0767 
    102 H102       30.2021   23.2614   -5.8478 H         1 UNK         0.0767 
    103 H103       29.7584   24.9389   -6.1143 H         1 UNK         0.0767 
    104 H104       30.6373   23.0531   -3.1605 H         1 UNK         0.3013 
    105 H105       29.6176   28.6393    4.8375 H         1 UNK         0.3121 
    106 H106       30.2192   30.4369    5.9240 H         1 UNK         0.0774 
    107 H107       29.3632   30.8080    8.2093 H         1 UNK         0.0815 
    108 H108       27.9434   29.8267    7.8800 H         1 UNK         0.0815 
    109 H109       29.5454   29.0883    7.9161 H         1 UNK         0.0815 
    110 H110       27.8654   30.6865    3.9172 H         1 UNK         0.2987 
    111 H111       27.0263   33.4909    4.5928 H         1 UNK         0.0949 
    112 H112       25.1561   33.0586    3.0000 H         1 UNK         0.0806 
    113 H113       25.7202   31.4101    2.7564 H         1 UNK         0.0806 
    114 H114       25.1243   31.9151    4.3341 H         1 UNK         0.0806 
    115 H115       28.3407   31.3069    2.0875 H         1 UNK         0.3010 
    116 H116       29.9755   33.4043    0.9599 H         1 UNK         0.0829 
    117 H117       27.8800   33.8304   -0.3525 H         1 UNK         0.0813 
    118 H118       29.1416   33.1585   -1.3717 H         1 UNK         0.0813 
    119 H119       27.8198   32.1377   -0.8362 H         1 UNK         0.0813 
    120 H120       31.2070   31.7913    2.2300 H         1 UNK         0.3038 
    121 H121       32.3986   29.7563    0.5849 H         1 UNK         0.0769 
    122 H122       30.8665   28.9977    3.1484 H         1 UNK         0.0811 
    123 H123       31.9480   27.9125    2.2791 H         1 UNK         0.0811 
    124 H124       30.4465   28.4506    1.5423 H         1 UNK         0.0811 
    125 H125       34.4237   29.1491    1.4985 H         1 UNK         0.3204 
    126 H126       35.6132   31.1426    3.2807 H         1 UNK         0.0748 
    127 H127       37.7337   30.0517    2.5980 H         1 UNK         0.0771 
    128 H128       36.8465   28.7825    1.7642 H         1 UNK         0.0771 
    129 H129       36.7651   30.4484    1.1903 H         1 UNK         0.0771 
    130 H130       33.8426   30.0300    4.8559 H         1 UNK         0.2980 
    131 H131       34.8300   27.6871    6.2682 H         1 UNK         0.0545 
    132 H132       36.4115   30.8304    8.2118 H         1 UNK         0.3459 
    133 H133       35.8075   30.9718    6.5795 H         1 UNK         0.3459 
    134 H134       32.4934   29.5087    6.9937 H         1 UNK         0.0616 
    135 H135       32.8372   27.9626    7.7245 H         1 UNK         0.0616 
    136 H136       33.2799   25.7349    5.8255 H         1 UNK         0.0634 
    137 H137       31.9403   25.7883    6.9491 H         1 UNK         0.0634 
@<TRIPOS>BOND
     1    1    2 1    
     2    1   72 1    
     3    1   73 1    
     4    1   74 1    
     5    2    3 2    
     6    2    4 am   BACKBONE|DICT|INTERRES
     7    4    5 1    
     8    4   75 1    
     9    5    6 1    
    10    5   35 1    
    11    5   76 1    
    12    6    7 1    
    13    6   77 1    
    14    6   78 1    
    15    7    8 1    
    16    8    9 1    
    17    8   79 1    
    18    8   80 1    
    19    9   10 ar   
    20    9   14 ar   
    21   10   11 ar   
    22   10   81 1    
    23   11   12 ar   
    24   11   71 1    
    25   12   13 ar   
    26   12   82 1    
    27   13   14 ar   
    28   13   15 1    
    29   14   83 1    
    30   15   16 1    
    31   15   84 1    
    32   15   85 1    
    33   16   17 1    
    34   17   18 1    
    35   17   86 1    
    36   17   87 1    
    37   18   19 1    
    38   18   37 1    
    39   18   88 1    
    40   19   20 am   BACKBONE|DICT|INTERRES
    41   19   89 1    
    42   20   21 2    
    43   20   22 1    
    44   22   23 1    
    45   22   24 1    
    46   22   90 1    
    47   23   91 1    
    48   23   92 1    
    49   23   93 1    
    50   24   25 am   BACKBONE|DICT|INTERRES
    51   24   94 1    
    52   25   26 2    
    53   25   27 1    
    54   27   28 1    
    55   27   29 1    
    56   27   95 1    
    57   28   96 1    
    58   28   97 1    
    59   28   98 1    
    60   29   30 am   BACKBONE|DICT|INTERRES
    61   29   99 1    
    62   30   31 2    
    63   30   32 1    
    64   32   33 1    
    65   32   34 1    
    66   32  100 1    
    67   33  101 1    
    68   33  102 1    
    69   33  103 1    
    70   34   35 am   BACKBONE|DICT|INTERRES
    71   34  104 1    
    72   35   36 2    
    73   37   38 2    
    74   37   39 am   BACKBONE|DICT|INTERRES
    75   39   40 1    
    76   39  105 1    
    77   40   41 1    
    78   40   42 1    
    79   40  106 1    
    80   41  107 1    
    81   41  108 1    
    82   41  109 1    
    83   42   43 2    
    84   42   44 am   BACKBONE|DICT|INTERRES
    85   44   45 1    
    86   44  110 1    
    87   45   46 1    
    88   45   47 1    
    89   45  111 1    
    90   46  112 1    
    91   46  113 1    
    92   46  114 1    
    93   47   48 2    
    94   47   49 am   BACKBONE|DICT|INTERRES
    95   49   50 1    
    96   49  115 1    
    97   50   51 1    
    98   50   52 1    
    99   50  116 1    
   100   51  117 1    
   101   51  118 1    
   102   51  119 1    
   103   52   53 2    
   104   52   54 am   BACKBONE|DICT|INTERRES
   105   54   55 1    
   106   54  120 1    
   107   55   56 1    
   108   55   57 1    
   109   55  121 1    
   110   56  122 1    
   111   56  123 1    
   112   56  124 1    
   113   57   58 2    
   114   57   59 am   BACKBONE|DICT|INTERRES
   115   59   60 1    
   116   59  125 1    
   117   60   61 1    
   118   60   62 1    
   119   60  126 1    
   120   61  127 1    
   121   61  128 1    
   122   61  129 1    
   123   62   63 2    
   124   62   64 am   BACKBONE|DICT|INTERRES
   125   64   65 1    
   126   64  130 1    
   127   65   66 1    
   128   65   69 1    
   129   65  131 1    
   130   66   67 am   BACKBONE|DICT|INTERRES
   131   66   68 2    
   132   67  132 1    
   133   67  133 1    
   134   69   70 1    
   135   69  134 1    
   136   69  135 1    
   137   70   71 1    
   138   71  136 1    
   139   71  137 1    
@<TRIPOS>SUBSTRUCTURE
     1 UNK         1 GROUP             0       ****    0 ROOT    
