@<TRIPOS>MOLECULE
3R136
137   139    1
SMALL
USER_CHARGES


@<TRIPOS>ATOM
      1 CA         25.6788   23.1729    2.9550 C.3       0 UNK        -0.1979 
      2 C          26.1399   22.7689    1.5627 C.2       0 UNK         0.4864 
      3 O          25.3104   22.4649    0.7042 O.2       0 UNK        -0.5359 
      4 N          27.4596   22.7642    1.3346 N.am      1 UNK        -0.4318 
      5 CA         28.1078   22.3794    0.0751 C.3       1 UNK         0.0824 
      6 C6         29.6267   22.1268    0.2519 C.3       12 UNK        -0.0944 
      7 S7         30.5227   23.4837    1.0884 S.3       12 UNK        -0.2672 
      8 C8         31.0642   22.6282    2.5984 C.3       12 UNK         0.0333 
      9 C9         31.8956   23.5421    3.4810 C.ar      12 UNK        -0.0807 
     10 C10        33.2754   23.6420    3.2833 C.ar      12 UNK        -0.0894 
     11 C11        34.0521   24.4606    4.1074 C.ar      12 UNK        -0.0804 
     12 C12        33.4330   25.2023    5.1180 C.ar      12 UNK        -0.0824 
     13 C13        32.0506   25.1269    5.3138 C.ar      12 UNK        -0.0762 
     14 C14        31.2905   24.2748    4.5055 C.ar      12 UNK        -0.0782 
     15 C15        31.3966   25.9711    6.4047 C.3       12 UNK         0.0230 
     16 S16        29.8874   26.8466    5.8629 S.3       12 UNK        -0.2608 
     17 C17        30.4147   27.6311    4.3017 C.3       12 UNK        -0.0989 
     18 CA         29.5805   27.1197    3.1017 C.3       5 UNK         0.0716 
     19 N          28.1766   27.5215    3.2143 N.am      5 UNK        -0.4135 
     20 C          27.1602   26.9025    2.6041 C.2       4 UNK         0.5031 
     21 O          27.2992   25.8680    1.9419 O.2       4 UNK        -0.5229 
     22 CA         25.7567   27.5265    2.7511 C.3       4 UNK         0.0329 
     23 CB         25.7707   29.0485    2.9886 C.3       4 UNK        -0.2001 
     24 N          25.0213   27.2493    1.5241 N.am      4 UNK        -0.4303 
     25 C          23.9699   26.4374    1.3925 C.2       3 UNK         0.5044 
     26 O          23.2919   26.0270    2.3348 O.2       3 UNK        -0.5152 
     27 CA         23.6591   25.9456   -0.0348 C.3       3 UNK         0.0319 
     28 CB         22.7814   26.9504   -0.8068 C.3       3 UNK        -0.2001 
     29 N          24.8664   25.5585   -0.7876 N.am      3 UNK        -0.4354 
     30 C          25.8533   26.3406   -1.2573 C.2       2 UNK         0.4964 
     31 O          25.8335   27.5713   -1.2076 O.2       2 UNK        -0.5047 
     32 CA         27.1011   25.6161   -1.7792 C.3       2 UNK         0.0288 
     33 CB         28.2878   26.5606   -2.0513 C.3       2 UNK        -0.2113 
     34 N          27.5013   24.6068   -0.7998 N.am      2 UNK        -0.4145 
     35 C          27.8228   23.3419   -1.0974 C.2       1 UNK         0.5006 
     36 O          27.8806   22.9076   -2.2498 O.2       1 UNK        -0.5103 
     37 C          30.1638   27.5733    1.7473 C.2       5 UNK         0.5055 
     38 O          29.5263   28.3387    1.0206 O.2       5 UNK        -0.5220 
     39 N          31.3596   27.0610    1.4216 N.am      6 UNK        -0.4450 
     40 CA         31.9878   27.1502    0.0987 C.3       6 UNK         0.0367 
     41 CB         33.3193   26.3837    0.1102 C.3       6 UNK        -0.1929 
     42 C          32.1745   28.5685   -0.4774 C.2       6 UNK         0.5070 
     43 O          32.1390   28.7059   -1.7013 O.2       6 UNK        -0.5237 
     44 N          32.3476   29.5873    0.3779 N.am      7 UNK        -0.4739 
     45 CA         32.3345   30.9939   -0.0345 C.3       7 UNK         0.0276 
     46 CB         33.4895   31.7656    0.6234 C.3       7 UNK        -0.1927 
     47 C          30.9827   31.6429    0.2890 C.2       7 UNK         0.5013 
     48 O          30.3641   32.2156   -0.6093 O.2       7 UNK        -0.5193 
     49 N          30.5544   31.5511    1.5552 N.am      8 UNK        -0.4253 
     50 CA         29.3163   32.1374    2.0722 C.3       8 UNK         0.0242 
     51 CB         29.3816   33.6849    2.0563 C.3       8 UNK        -0.2000 
     52 C          29.0489   31.5496    3.4632 C.2       8 UNK         0.4948 
     53 O          28.6623   30.3876    3.5621 O.2       8 UNK        -0.5275 
     54 N          29.2847   32.3391    4.5193 N.am      9 UNK        -0.4246 
     55 CA         29.2019   31.9091    5.9203 C.3       9 UNK         0.0261 
     56 CB         28.9730   33.1464    6.8053 C.3       9 UNK        -0.1959 
     57 C          30.4467   31.1289    6.3909 C.2       9 UNK         0.5033 
     58 O          30.4329   30.5844    7.4956 O.2       9 UNK        -0.5390 
     59 N          31.4970   31.1030    5.5631 N.am      10 UNK        -0.4215 
     60 CA         32.7567   30.4016    5.7780 C.3       10 UNK         0.0240 
     61 CB         33.7952   31.3962    6.3302 C.3       10 UNK        -0.1982 
     62 C          33.2185   29.7775    4.4534 C.2       10 UNK         0.4970 
     63 O          32.5745   29.9746    3.4155 O.2       10 UNK        -0.4916 
     64 N          34.3225   29.0247    4.5250 N.am      11 UNK        -0.4279 
     65 CA         34.9709   28.3607    3.3836 C.3       11 UNK         0.1003 
     66 C          35.6112   29.3284    2.3443 C.2       11 UNK         0.5709 
     67 N          35.9319   30.5644    2.7098 N.am      11 UNK        -0.7358 
     68 O          35.8175   28.9538    1.1938 O.2       11 UNK        -0.4999 
     69 C69        36.0050   27.3075    3.8706 C.3       12 UNK        -0.0954 
     70 S70        36.0801   25.8364    2.7941 S.3       12 UNK        -0.2268 
     71 C71        35.5625   24.5088    3.9255 C.3       12 UNK         0.0203 
     72 H72        26.5101   23.5010    3.5789 H         1 UNK         0.0888 
     73 H73        24.9651   23.9921    2.8919 H         1 UNK         0.0888 
     74 H74        25.1913   22.3326    3.4483 H         1 UNK         0.0888 
     75 H75        28.0879   23.0874    2.0562 H         1 UNK         0.3017 
     76 H76        27.6621   21.4270   -0.2207 H         1 UNK         0.0873 
     77 H77        29.7649   21.2045    0.8181 H         1 UNK         0.0745 
     78 H78        30.1059   21.9392   -0.7112 H         1 UNK         0.0745 
     79 H79        30.1926   22.2643    3.1448 H         1 UNK         0.0705 
     80 H80        31.6482   21.7473    2.3264 H         1 UNK         0.0705 
     81 H81        33.7470   23.0700    2.4956 H         1 UNK         0.1334 
     82 H82        34.0288   25.8345    5.7604 H         1 UNK         0.1417 
     83 H83        30.2235   24.1962    4.6642 H         1 UNK         0.1562 
     84 H84        32.0982   26.7156    6.7846 H         1 UNK         0.0748 
     85 H85        31.1459   25.3261    7.2476 H         1 UNK         0.0748 
     86 H86        31.4774   27.4457    4.1474 H         1 UNK         0.0940 
     87 H87        30.3196   28.7096    4.4111 H         1 UNK         0.0940 
     88 H88        29.6177   26.0290    3.0991 H         1 UNK         0.0703 
     89 H89        28.0276   28.4422    3.6129 H         1 UNK         0.3081 
     90 H90        25.2748   27.0419    3.6024 H         1 UNK         0.0719 
     91 H91        26.3514   29.5711    2.2268 H         1 UNK         0.0809 
     92 H92        24.7604   29.4577    2.9726 H         1 UNK         0.0809 
     93 H93        26.1946   29.2956    3.9624 H         1 UNK         0.0809 
     94 H94        25.4982   27.5061    0.6638 H         1 UNK         0.2990 
     95 H95        23.0811   25.0262    0.0734 H         1 UNK         0.0690 
     96 H96        22.5441   26.5839   -1.8054 H         1 UNK         0.0788 
     97 H97        23.2616   27.9236   -0.9109 H         1 UNK         0.0788 
     98 H98        21.8362   27.1138   -0.2877 H         1 UNK         0.0788 
     99 H99        25.0189   24.5588   -0.8353 H         1 UNK         0.2993 
    100 H100       26.8116   25.1461   -2.7217 H         1 UNK         0.0949 
    101 H101       29.1511   26.0134   -2.4303 H         1 UNK         0.0767 
    102 H102       28.0282   27.3145   -2.7954 H         1 UNK         0.0767 
    103 H103       28.5965   27.0850   -1.1467 H         1 UNK         0.0767 
    104 H104       27.4668   24.8920    0.1770 H         1 UNK         0.3013 
    105 H105       31.8009   26.4281    2.0734 H         1 UNK         0.3121 
    106 H106       31.3163   26.6267   -0.5854 H         1 UNK         0.0774 
    107 H107       33.7559   26.3501   -0.8887 H         1 UNK         0.0815 
    108 H108       34.0514   26.8555    0.7631 H         1 UNK         0.0815 
    109 H109       33.1872   25.3525    0.4392 H         1 UNK         0.0815 
    110 H110       32.3543   29.4018    1.3738 H         1 UNK         0.2987 
    111 H111       32.4777   31.0743   -1.1144 H         1 UNK         0.0949 
    112 H112       33.4444   31.7353    1.7113 H         1 UNK         0.0806 
    113 H113       34.4529   31.3618    0.3137 H         1 UNK         0.0806 
    114 H114       33.4725   32.8156    0.3284 H         1 UNK         0.0806 
    115 H115       31.0974   31.0007    2.2105 H         1 UNK         0.3010 
    116 H116       28.4911   31.8164    1.4328 H         1 UNK         0.0829 
    117 H117       29.4019   34.0701    1.0370 H         1 UNK         0.0813 
    118 H118       28.5036   34.1242    2.5324 H         1 UNK         0.0813 
    119 H119       30.2687   34.0654    2.5638 H         1 UNK         0.0813 
    120 H120       29.5839   33.2897    4.3531 H         1 UNK         0.3038 
    121 H121       28.3423   31.2447    6.0337 H         1 UNK         0.0769 
    122 H122       29.8065   33.8473    6.7444 H         1 UNK         0.0811 
    123 H123       28.8625   32.8627    7.8529 H         1 UNK         0.0811 
    124 H124       28.0646   33.6768    6.5191 H         1 UNK         0.0811 
    125 H125       31.3992   31.5219    4.6499 H         1 UNK         0.3204 
    126 H126       32.6094   29.5885    6.4923 H         1 UNK         0.0748 
    127 H127       33.4445   31.8570    7.2540 H         1 UNK         0.0771 
    128 H128       34.7410   30.9048    6.5602 H         1 UNK         0.0771 
    129 H129       34.0041   32.1969    5.6193 H         1 UNK         0.0771 
    130 H130       34.7917   28.9312    5.4133 H         1 UNK         0.2980 
    131 H131       34.1674   27.8369    2.8636 H         1 UNK         0.0545 
    132 H132       35.7779   30.8792    3.6531 H         1 UNK         0.3459 
    133 H133       36.3514   31.1821    2.0339 H         1 UNK         0.3459 
    134 H134       37.0069   27.7354    3.9441 H         1 UNK         0.0616 
    135 H135       35.7724   26.9798    4.8830 H         1 UNK         0.0616 
    136 H136       36.0615   24.6237    4.8889 H         1 UNK         0.0634 
    137 H137       35.9128   23.5580    3.5210 H         1 UNK         0.0634 
@<TRIPOS>BOND
     1    1    2 1    
     2    1   72 1    
     3    1   73 1    
     4    1   74 1    
     5    2    3 2    
     6    2    4 am   BACKBONE|DICT|INTERRES
     7    4    5 1    
     8    4   75 1    
     9    5    6 1    
    10    5   35 1    
    11    5   76 1    
    12    6    7 1    
    13    6   77 1    
    14    6   78 1    
    15    7    8 1    
    16    8    9 1    
    17    8   79 1    
    18    8   80 1    
    19    9   10 ar   
    20    9   14 ar   
    21   10   11 ar   
    22   10   81 1    
    23   11   12 ar   
    24   11   71 1    
    25   12   13 ar   
    26   12   82 1    
    27   13   14 ar   
    28   13   15 1    
    29   14   83 1    
    30   15   16 1    
    31   15   84 1    
    32   15   85 1    
    33   16   17 1    
    34   17   18 1    
    35   17   86 1    
    36   17   87 1    
    37   18   19 1    
    38   18   37 1    
    39   18   88 1    
    40   19   20 am   BACKBONE|DICT|INTERRES
    41   19   89 1    
    42   20   21 2    
    43   20   22 1    
    44   22   23 1    
    45   22   24 1    
    46   22   90 1    
    47   23   91 1    
    48   23   92 1    
    49   23   93 1    
    50   24   25 am   BACKBONE|DICT|INTERRES
    51   24   94 1    
    52   25   26 2    
    53   25   27 1    
    54   27   28 1    
    55   27   29 1    
    56   27   95 1    
    57   28   96 1    
    58   28   97 1    
    59   28   98 1    
    60   29   30 am   BACKBONE|DICT|INTERRES
    61   29   99 1    
    62   30   31 2    
    63   30   32 1    
    64   32   33 1    
    65   32   34 1    
    66   32  100 1    
    67   33  101 1    
    68   33  102 1    
    69   33  103 1    
    70   34   35 am   BACKBONE|DICT|INTERRES
    71   34  104 1    
    72   35   36 2    
    73   37   38 2    
    74   37   39 am   BACKBONE|DICT|INTERRES
    75   39   40 1    
    76   39  105 1    
    77   40   41 1    
    78   40   42 1    
    79   40  106 1    
    80   41  107 1    
    81   41  108 1    
    82   41  109 1    
    83   42   43 2    
    84   42   44 am   BACKBONE|DICT|INTERRES
    85   44   45 1    
    86   44  110 1    
    87   45   46 1    
    88   45   47 1    
    89   45  111 1    
    90   46  112 1    
    91   46  113 1    
    92   46  114 1    
    93   47   48 2    
    94   47   49 am   BACKBONE|DICT|INTERRES
    95   49   50 1    
    96   49  115 1    
    97   50   51 1    
    98   50   52 1    
    99   50  116 1    
   100   51  117 1    
   101   51  118 1    
   102   51  119 1    
   103   52   53 2    
   104   52   54 am   BACKBONE|DICT|INTERRES
   105   54   55 1    
   106   54  120 1    
   107   55   56 1    
   108   55   57 1    
   109   55  121 1    
   110   56  122 1    
   111   56  123 1    
   112   56  124 1    
   113   57   58 2    
   114   57   59 am   BACKBONE|DICT|INTERRES
   115   59   60 1    
   116   59  125 1    
   117   60   61 1    
   118   60   62 1    
   119   60  126 1    
   120   61  127 1    
   121   61  128 1    
   122   61  129 1    
   123   62   63 2    
   124   62   64 am   BACKBONE|DICT|INTERRES
   125   64   65 1    
   126   64  130 1    
   127   65   66 1    
   128   65   69 1    
   129   65  131 1    
   130   66   67 am   BACKBONE|DICT|INTERRES
   131   66   68 2    
   132   67  132 1    
   133   67  133 1    
   134   69   70 1    
   135   69  134 1    
   136   69  135 1    
   137   70   71 1    
   138   71  136 1    
   139   71  137 1    
@<TRIPOS>SUBSTRUCTURE
     1 UNK         1 GROUP             0       ****    0 ROOT    
