@<TRIPOS>MOLECULE
3R136
137   139    1
SMALL
USER_CHARGES


@<TRIPOS>ATOM
      1 CA         28.2793   20.8174   -4.0194 C.3       0 UNK        -0.1979 
      2 C          28.4574   21.8249   -2.8941 C.2       0 UNK         0.4864 
      3 O          27.6600   22.7553   -2.7771 O.2       0 UNK        -0.5359 
      4 N          29.4856   21.6380   -2.0526 N.am      1 UNK        -0.4318 
      5 CA         29.8445   22.5169   -0.9285 C.3       1 UNK         0.0824 
      6 C6         31.1478   22.0397   -0.2404 C.3       12 UNK        -0.0944 
      7 S7         32.0544   23.3934    0.5839 S.3       12 UNK        -0.2672 
      8 C8         32.1091   22.8447    2.3210 C.3       12 UNK         0.0333 
      9 C9         31.3693   23.8091    3.2348 C.ar      12 UNK        -0.0807 
     10 C10        32.0151   24.9548    3.7078 C.ar      12 UNK        -0.0894 
     11 C11        31.3537   25.8403    4.5633 C.ar      12 UNK        -0.0804 
     12 C12        30.0420   25.5661    4.9601 C.ar      12 UNK        -0.0824 
     13 C13        29.3833   24.4272    4.4879 C.ar      12 UNK        -0.0762 
     14 C14        30.0509   23.5527    3.6238 C.ar      12 UNK        -0.0782 
     15 C15        27.9552   24.1316    4.9183 C.3       12 UNK         0.0230 
     16 S16        26.7518   24.6502    3.6573 S.3       12 UNK        -0.2608 
     17 C17        26.6862   26.4598    3.8837 C.3       12 UNK        -0.0989 
     18 CA         27.5238   27.2513    2.8460 C.3       5 UNK         0.0716 
     19 N          27.2028   26.8732    1.4673 N.am      5 UNK        -0.4135 
     20 C          27.9091   27.2270    0.3854 C.2       4 UNK         0.5031 
     21 O          28.9468   27.8911    0.4345 O.2       4 UNK        -0.5229 
     22 CA         27.3758   26.7645   -0.9824 C.3       4 UNK         0.0329 
     23 CB         28.5118   26.5243   -1.9947 C.3       4 UNK        -0.2001 
     24 N          26.5830   25.5385   -0.8671 N.am      4 UNK        -0.4303 
     25 C          25.3261   25.3788   -1.3066 C.2       3 UNK         0.5044 
     26 O          24.6596   26.2907   -1.7983 O.2       3 UNK        -0.5152 
     27 CA         24.6917   23.9775   -1.1989 C.3       3 UNK         0.0319 
     28 CB         24.2467   23.4702   -2.5821 C.3       3 UNK        -0.2001 
     29 N          25.6112   22.9988   -0.6149 N.am      3 UNK        -0.4354 
     30 C          25.5632   22.5643    0.6528 C.2       2 UNK         0.4964 
     31 O          24.6613   22.8616    1.4364 O.2       2 UNK        -0.5047 
     32 CA         26.7011   21.6453    1.1476 C.3       2 UNK         0.0288 
     33 CB         26.2002   20.1986    1.2917 C.3       2 UNK        -0.2113 
     34 N          27.9047   21.6472    0.3094 N.am      2 UNK        -0.4145 
     35 C          28.6949   22.7082    0.0852 C.2       1 UNK         0.5006 
     36 O          28.4958   23.8170    0.5783 O.2       1 UNK        -0.5103 
     37 C          27.3222   28.7659    3.0604 C.2       5 UNK         0.5055 
     38 O          26.3854   29.3449    2.5028 O.2       5 UNK        -0.5220 
     39 N          28.1698   29.3657    3.8995 N.am      6 UNK        -0.4450 
     40 CA         28.1508   30.7733    4.2906 C.3       6 UNK         0.0367 
     41 CB         28.6862   31.6511    3.1360 C.3       6 UNK        -0.1929 
     42 C          28.9792   30.9093    5.5798 C.2       6 UNK         0.5070 
     43 O          29.1402   29.9246    6.3064 O.2       6 UNK        -0.5237 
     44 N          29.5279   32.1057    5.8293 N.am      7 UNK        -0.4739 
     45 CA         30.6518   32.3040    6.7493 C.3       7 UNK         0.0276 
     46 CB         30.8307   33.8075    7.0127 C.3       7 UNK        -0.1927 
     47 C          31.9269   31.7133    6.1239 C.2       7 UNK         0.5013 
     48 O          32.0708   31.7838    4.9025 O.2       7 UNK        -0.5193 
     49 N          32.8260   31.1649    6.9531 N.am      8 UNK        -0.4253 
     50 CA         33.9813   30.3415    6.5561 C.3       8 UNK         0.0242 
     51 CB         34.8249   30.0201    7.8005 C.3       8 UNK        -0.2000 
     52 C          34.8787   30.9011    5.4343 C.2       8 UNK         0.4948 
     53 O          35.3895   30.1224    4.6288 O.2       8 UNK        -0.5275 
     54 N          35.0414   32.2293    5.3876 N.am      9 UNK        -0.4246 
     55 CA         35.8044   32.9354    4.3551 C.3       9 UNK         0.0261 
     56 CB         36.2114   34.3151    4.9000 C.3       9 UNK        -0.1959 
     57 C          35.0561   33.0916    3.0152 C.2       9 UNK         0.5033 
     58 O          35.7038   33.3931    2.0113 O.2       9 UNK        -0.5390 
     59 N          33.7267   32.9249    3.0148 N.am      10 UNK        -0.4215 
     60 CA         32.8413   33.1687    1.8737 C.3       10 UNK         0.0240 
     61 CB         31.7172   34.1175    2.3290 C.3       10 UNK        -0.1982 
     62 C          32.2448   31.8810    1.2777 C.2       10 UNK         0.4970 
     63 O          31.5995   31.9713    0.2322 O.2       10 UNK        -0.4916 
     64 N          32.4367   30.7270    1.9340 N.am      11 UNK        -0.4279 
     65 CA         31.9321   29.4118    1.5019 C.3       11 UNK         0.1003 
     66 C          32.4055   28.9955    0.0819 C.2       11 UNK         0.5709 
     67 N          31.5449   28.3398   -0.6832 N.am      11 UNK        -0.7358 
     68 O          33.5507   29.2196   -0.3076 O.2       11 UNK        -0.4999 
     69 C69        32.2841   28.2971    2.5186 C.3       12 UNK        -0.0954 
     70 S70        31.5047   28.5645    4.1386 S.3       12 UNK        -0.2268 
     71 C71        32.0530   27.0964    5.0570 C.3       12 UNK         0.0203 
     72 H72        28.3350   21.3214   -4.9838 H         1 UNK         0.0888 
     73 H73        29.0432   20.0405   -3.9974 H         1 UNK         0.0888 
     74 H74        27.3040   20.3378   -3.9415 H         1 UNK         0.0888 
     75 H75        30.0998   20.8500   -2.2037 H         1 UNK         0.3017 
     76 H76        30.0344   23.4960   -1.3733 H         1 UNK         0.0873 
     77 H77        31.8348   21.6400   -0.9883 H         1 UNK         0.0745 
     78 H78        30.9537   21.2112    0.4426 H         1 UNK         0.0745 
     79 H79        33.1535   22.7795    2.6299 H         1 UNK         0.0705 
     80 H80        31.7059   21.8380    2.4331 H         1 UNK         0.0705 
     81 H81        33.0313   25.1615    3.4008 H         1 UNK         0.1334 
     82 H82        29.5317   26.2483    5.6264 H         1 UNK         0.1417 
     83 H83        29.5408   22.6746    3.2521 H         1 UNK         0.1562 
     84 H84        27.7261   24.6097    5.8719 H         1 UNK         0.0748 
     85 H85        27.8432   23.0593    5.0850 H         1 UNK         0.0748 
     86 H86        27.0036   26.7059    4.8987 H         1 UNK         0.0940 
     87 H87        25.6356   26.7521    3.8237 H         1 UNK         0.0940 
     88 H88        28.5799   27.0204    3.0018 H         1 UNK         0.0703 
     89 H89        26.3686   26.3214    1.3405 H         1 UNK         0.3081 
     90 H90        26.7575   27.5822   -1.3571 H         1 UNK         0.0719 
     91 H91        29.0546   27.4469   -2.2029 H         1 UNK         0.0809 
     92 H92        29.2320   25.7963   -1.6203 H         1 UNK         0.0809 
     93 H93        28.1260   26.1553   -2.9452 H         1 UNK         0.0809 
     94 H94        27.0611   24.7580   -0.4255 H         1 UNK         0.2990 
     95 H95        23.7997   24.0790   -0.5777 H         1 UNK         0.0690 
     96 H96        25.0849   23.4013   -3.2763 H         1 UNK         0.0788 
     97 H97        23.5097   24.1398   -3.0274 H         1 UNK         0.0788 
     98 H98        23.7863   22.4845   -2.5133 H         1 UNK         0.0788 
     99 H99        26.3863   22.7221   -1.2108 H         1 UNK         0.2993 
    100 H100       26.9912   22.0075    2.1361 H         1 UNK         0.0949 
    101 H101       25.9138   19.7735    0.3288 H         1 UNK         0.0767 
    102 H102       26.9628   19.5555    1.7317 H         1 UNK         0.0767 
    103 H103       25.3256   20.1505    1.9423 H         1 UNK         0.0767 
    104 H104       28.1258   20.7830   -0.1637 H         1 UNK         0.3013 
    105 H105       28.8860   28.8258    4.3722 H         1 UNK         0.3121 
    106 H106       27.1242   31.0625    4.5236 H         1 UNK         0.0774 
    107 H107       28.5729   32.7135    3.3519 H         1 UNK         0.0815 
    108 H108       29.7437   31.4588    2.9523 H         1 UNK         0.0815 
    109 H109       28.1518   31.4640    2.2047 H         1 UNK         0.0815 
    110 H110       29.3649   32.8478    5.1653 H         1 UNK         0.2987 
    111 H111       30.4381   31.7941    7.6914 H         1 UNK         0.0949 
    112 H112       29.9296   34.2444    7.4436 H         1 UNK         0.0806 
    113 H113       31.6447   33.9871    7.7162 H         1 UNK         0.0806 
    114 H114       31.0643   34.3539    6.0976 H         1 UNK         0.0806 
    115 H115       32.6307   31.1931    7.9436 H         1 UNK         0.3010 
    116 H116       33.5731   29.4017    6.1818 H         1 UNK         0.0829 
    117 H117       34.2433   29.4798    8.5477 H         1 UNK         0.0813 
    118 H118       35.6786   29.3910    7.5434 H         1 UNK         0.0813 
    119 H119       35.2160   30.9251    8.2671 H         1 UNK         0.0813 
    120 H120       34.5774   32.7940    6.0845 H         1 UNK         0.3038 
    121 H121       36.7167   32.3702    4.1516 H         1 UNK         0.0769 
    122 H122       36.8161   34.8597    4.1733 H         1 UNK         0.0811 
    123 H123       36.8066   34.2238    5.8088 H         1 UNK         0.0811 
    124 H124       35.3413   34.9326    5.1270 H         1 UNK         0.0811 
    125 H125       33.2602   32.6099    3.8659 H         1 UNK         0.3204 
    126 H126       33.3902   33.6617    1.0689 H         1 UNK         0.0748 
    127 H127       31.0370   34.3471    1.5076 H         1 UNK         0.0771 
    128 H128       31.1233   33.6823    3.1332 H         1 UNK         0.0771 
    129 H129       32.1211   35.0645    2.6873 H         1 UNK         0.0771 
    130 H130       32.9392   30.7412    2.8092 H         1 UNK         0.2980 
    131 H131       30.8447   29.5039    1.4697 H         1 UNK         0.0545 
    132 H132       31.8244   28.0393   -1.6024 H         1 UNK         0.3459 
    133 H133       30.6055   28.1463   -0.3404 H         1 UNK         0.3459 
    134 H134       31.9437   27.3291    2.1460 H         1 UNK         0.0616 
    135 H135       33.3648   28.2209    2.6529 H         1 UNK         0.0616 
    136 H136       33.1370   27.0000    4.9766 H         1 UNK         0.0634 
    137 H137       31.8347   27.2438    6.1157 H         1 UNK         0.0634 
@<TRIPOS>BOND
     1    1    2 1    
     2    1   72 1    
     3    1   73 1    
     4    1   74 1    
     5    2    3 2    
     6    2    4 am   BACKBONE|DICT|INTERRES
     7    4    5 1    
     8    4   75 1    
     9    5    6 1    
    10    5   35 1    
    11    5   76 1    
    12    6    7 1    
    13    6   77 1    
    14    6   78 1    
    15    7    8 1    
    16    8    9 1    
    17    8   79 1    
    18    8   80 1    
    19    9   10 ar   
    20    9   14 ar   
    21   10   11 ar   
    22   10   81 1    
    23   11   12 ar   
    24   11   71 1    
    25   12   13 ar   
    26   12   82 1    
    27   13   14 ar   
    28   13   15 1    
    29   14   83 1    
    30   15   16 1    
    31   15   84 1    
    32   15   85 1    
    33   16   17 1    
    34   17   18 1    
    35   17   86 1    
    36   17   87 1    
    37   18   19 1    
    38   18   37 1    
    39   18   88 1    
    40   19   20 am   BACKBONE|DICT|INTERRES
    41   19   89 1    
    42   20   21 2    
    43   20   22 1    
    44   22   23 1    
    45   22   24 1    
    46   22   90 1    
    47   23   91 1    
    48   23   92 1    
    49   23   93 1    
    50   24   25 am   BACKBONE|DICT|INTERRES
    51   24   94 1    
    52   25   26 2    
    53   25   27 1    
    54   27   28 1    
    55   27   29 1    
    56   27   95 1    
    57   28   96 1    
    58   28   97 1    
    59   28   98 1    
    60   29   30 am   BACKBONE|DICT|INTERRES
    61   29   99 1    
    62   30   31 2    
    63   30   32 1    
    64   32   33 1    
    65   32   34 1    
    66   32  100 1    
    67   33  101 1    
    68   33  102 1    
    69   33  103 1    
    70   34   35 am   BACKBONE|DICT|INTERRES
    71   34  104 1    
    72   35   36 2    
    73   37   38 2    
    74   37   39 am   BACKBONE|DICT|INTERRES
    75   39   40 1    
    76   39  105 1    
    77   40   41 1    
    78   40   42 1    
    79   40  106 1    
    80   41  107 1    
    81   41  108 1    
    82   41  109 1    
    83   42   43 2    
    84   42   44 am   BACKBONE|DICT|INTERRES
    85   44   45 1    
    86   44  110 1    
    87   45   46 1    
    88   45   47 1    
    89   45  111 1    
    90   46  112 1    
    91   46  113 1    
    92   46  114 1    
    93   47   48 2    
    94   47   49 am   BACKBONE|DICT|INTERRES
    95   49   50 1    
    96   49  115 1    
    97   50   51 1    
    98   50   52 1    
    99   50  116 1    
   100   51  117 1    
   101   51  118 1    
   102   51  119 1    
   103   52   53 2    
   104   52   54 am   BACKBONE|DICT|INTERRES
   105   54   55 1    
   106   54  120 1    
   107   55   56 1    
   108   55   57 1    
   109   55  121 1    
   110   56  122 1    
   111   56  123 1    
   112   56  124 1    
   113   57   58 2    
   114   57   59 am   BACKBONE|DICT|INTERRES
   115   59   60 1    
   116   59  125 1    
   117   60   61 1    
   118   60   62 1    
   119   60  126 1    
   120   61  127 1    
   121   61  128 1    
   122   61  129 1    
   123   62   63 2    
   124   62   64 am   BACKBONE|DICT|INTERRES
   125   64   65 1    
   126   64  130 1    
   127   65   66 1    
   128   65   69 1    
   129   65  131 1    
   130   66   67 am   BACKBONE|DICT|INTERRES
   131   66   68 2    
   132   67  132 1    
   133   67  133 1    
   134   69   70 1    
   135   69  134 1    
   136   69  135 1    
   137   70   71 1    
   138   71  136 1    
   139   71  137 1    
@<TRIPOS>SUBSTRUCTURE
     1 UNK         1 GROUP             0       ****    0 ROOT    
