@<TRIPOS>MOLECULE
3R136
137   139    1
SMALL
USER_CHARGES


@<TRIPOS>ATOM
      1 CA         29.3194   20.3453    0.8420 C.3       0 UNK        -0.1979 
      2 C          29.0317   21.5066   -0.0962 C.2       0 UNK         0.4864 
      3 O          28.1028   22.2795    0.1474 O.2       0 UNK        -0.5359 
      4 N          29.8248   21.6308   -1.1703 N.am      1 UNK        -0.4318 
      5 CA         29.7302   22.6728   -2.2031 C.3       1 UNK         0.0824 
      6 C6         30.1078   24.0879   -1.6715 C.3       12 UNK        -0.0944 
      7 S7         31.7830   24.1619   -0.9549 S.3       12 UNK        -0.2672 
      8 C8         31.5817   25.5003    0.2646 C.3       12 UNK         0.0333 
      9 C9         31.5014   24.9812    1.6938 C.ar      12 UNK        -0.0807 
     10 C10        32.5401   25.2491    2.5914 C.ar      12 UNK        -0.0894 
     11 C11        32.4769   24.7879    3.9090 C.ar      12 UNK        -0.0804 
     12 C12        31.3646   24.0537    4.3294 C.ar      12 UNK        -0.0824 
     13 C13        30.3198   23.7758    3.4437 C.ar      12 UNK        -0.0762 
     14 C14        30.3919   24.2478    2.1281 C.ar      12 UNK        -0.0782 
     15 C15        29.1385   22.9304    3.9040 C.3       12 UNK         0.0230 
     16 S16        27.5391   23.7710    3.6988 S.3       12 UNK        -0.2608 
     17 C17        27.6461   25.1263    4.9215 C.3       12 UNK        -0.0989 
     18 CA         28.0819   26.4902    4.3147 C.3       5 UNK         0.0716 
     19 N          27.3791   26.7638    3.0531 N.am      5 UNK        -0.4135 
     20 C          27.7475   27.5948    2.0719 C.2       4 UNK         0.5031 
     21 O          28.6645   28.4105    2.1911 O.2       4 UNK        -0.5229 
     22 CA         26.9615   27.5115    0.7462 C.3       4 UNK         0.0329 
     23 CB         27.7711   28.0710   -0.4392 C.3       4 UNK        -0.2001 
     24 N          26.5289   26.1470    0.4181 N.am      4 UNK        -0.4303 
     25 C          25.4570   25.5166    0.9187 C.2       3 UNK         0.5044 
     26 O          24.7153   26.0235    1.7612 O.2       3 UNK        -0.5152 
     27 CA         25.2071   24.0702    0.4444 C.3       3 UNK         0.0319 
     28 CB         23.7216   23.6583    0.5285 C.3       3 UNK        -0.2001 
     29 N          25.7755   23.7735   -0.8784 N.am      3 UNK        -0.4354 
     30 C          25.4030   24.2895   -2.0633 C.2       2 UNK         0.4964 
     31 O          24.4803   25.0942   -2.1969 O.2       2 UNK        -0.5047 
     32 CA         26.2240   23.8622   -3.2971 C.3       2 UNK         0.0288 
     33 CB         26.0815   24.8466   -4.4745 C.3       2 UNK        -0.2113 
     34 N          27.6380   23.7515   -2.9383 N.am      2 UNK        -0.4145 
     35 C          28.3437   22.6145   -2.8904 C.2       1 UNK         0.5006 
     36 O          27.9305   21.5353   -3.3223 O.2       1 UNK        -0.5103 
     37 C          27.9654   27.6459    5.3411 C.2       5 UNK         0.5055 
     38 O          27.7311   27.4020    6.5267 O.2       5 UNK        -0.5220 
     39 N          28.1070   28.8820    4.8582 N.am      6 UNK        -0.4450 
     40 CA         28.0451   30.1439    5.5908 C.3       6 UNK         0.0367 
     41 CB         26.6168   30.4328    6.0931 C.3       6 UNK        -0.1929 
     42 C          28.5383   31.2825    4.6895 C.2       6 UNK         0.5070 
     43 O          29.2732   32.1517    5.1573 O.2       6 UNK        -0.5237 
     44 N          28.1336   31.2542    3.4115 N.am      7 UNK        -0.4739 
     45 CA         28.4725   32.2629    2.4052 C.3       7 UNK         0.0276 
     46 CB         27.3714   32.2737    1.3318 C.3       7 UNK        -0.1927 
     47 C          29.8480   32.0531    1.7477 C.2       7 UNK         0.5013 
     48 O          30.3760   33.0038    1.1677 O.2       7 UNK        -0.5193 
     49 N          30.3914   30.8287    1.8078 N.am      8 UNK        -0.4253 
     50 CA         31.6385   30.4062    1.1615 C.3       8 UNK         0.0242 
     51 CB         31.6766   28.8697    1.1216 C.3       8 UNK        -0.2000 
     52 C          32.9156   31.0079    1.7848 C.2       8 UNK         0.4948 
     53 O          33.7508   30.2713    2.3164 O.2       8 UNK        -0.5275 
     54 N          33.0540   32.3368    1.6791 N.am      9 UNK        -0.4246 
     55 CA         34.2051   33.1577    2.0700 C.3       9 UNK         0.0261 
     56 CB         35.3695   32.9450    1.0751 C.3       9 UNK        -0.1959 
     57 C          34.5876   32.9380    3.5448 C.2       9 UNK         0.5033 
     58 O          33.7994   33.2878    4.4246 O.2       9 UNK        -0.5390 
     59 N          35.7571   32.3323    3.7931 N.am      10 UNK        -0.4215 
     60 CA         36.2554   31.9630    5.1211 C.3       10 UNK         0.0240 
     61 CB         37.6934   31.4345    4.9919 C.3       10 UNK        -0.1982 
     62 C          35.3710   30.9429    5.8641 C.2       10 UNK         0.4970 
     63 O          35.3981   30.9257    7.0955 O.2       10 UNK        -0.4916 
     64 N          34.6038   30.1336    5.1208 N.am      11 UNK        -0.4279 
     65 CA         33.5827   29.2230    5.6560 C.3       11 UNK         0.1003 
     66 C          32.1682   29.8693    5.7486 C.2       11 UNK         0.5709 
     67 N          31.9826   31.1397    5.4058 N.am      11 UNK        -0.7358 
     68 O          31.2184   29.2094    6.1576 O.2       11 UNK        -0.4999 
     69 C69        33.5739   27.8743    4.8813 C.3       12 UNK        -0.0954 
     70 S70        33.2533   26.4542    5.9794 S.3       12 UNK        -0.2268 
     71 C71        33.6193   25.0566    4.8766 C.3       12 UNK         0.0203 
     72 H72        29.6652   19.4698    0.2929 H         1 UNK         0.0888 
     73 H73        30.0873   20.6261    1.5619 H         1 UNK         0.0888 
     74 H74        28.4199   20.0657    1.3901 H         1 UNK         0.0888 
     75 H75        30.5550   20.9489   -1.3193 H         1 UNK         0.3017 
     76 H76        30.4529   22.4058   -2.9757 H         1 UNK         0.0873 
     77 H77        30.0802   24.8232   -2.4779 H         1 UNK         0.0745 
     78 H78        29.3888   24.4168   -0.9198 H         1 UNK         0.0745 
     79 H79        32.4322   26.1737    0.1551 H         1 UNK         0.0705 
     80 H80        30.6965   26.0964    0.0421 H         1 UNK         0.0705 
     81 H81        33.4011   25.8169    2.2658 H         1 UNK         0.1334 
     82 H82        31.3212   23.6907    5.3473 H         1 UNK         0.1417 
     83 H83        29.5842   24.0364    1.4421 H         1 UNK         0.1562 
     84 H84        29.2503   22.6289    4.9466 H         1 UNK         0.0748 
     85 H85        29.1197   22.0093    3.3220 H         1 UNK         0.0748 
     86 H86        28.3239   24.8352    5.7263 H         1 UNK         0.0940 
     87 H87        26.6590   25.2154    5.3796 H         1 UNK         0.0940 
     88 H88        29.1444   26.4124    4.0734 H         1 UNK         0.0703 
     89 H89        26.5650   26.1876    2.8824 H         1 UNK         0.3081 
     90 H90        26.0750   28.1372    0.8678 H         1 UNK         0.0719 
     91 H91        28.6887   27.5056   -0.6035 H         1 UNK         0.0809 
     92 H92        27.1912   28.0472   -1.3620 H         1 UNK         0.0809 
     93 H93        28.0567   29.1099   -0.2684 H         1 UNK         0.0809 
     94 H94        27.1077   25.6347   -0.2285 H         1 UNK         0.2990 
     95 H95        25.7543   23.4366    1.1439 H         1 UNK         0.0690 
     96 H96        23.5755   22.6305    0.1966 H         1 UNK         0.0788 
     97 H97        23.0850   24.3025   -0.0784 H         1 UNK         0.0788 
     98 H98        23.3575   23.7198    1.5548 H         1 UNK         0.0788 
     99 H99        26.5665   23.1350   -0.8500 H         1 UNK         0.2993 
    100 H100       25.8293   22.8943   -3.6136 H         1 UNK         0.0949 
    101 H101       26.4038   25.8523   -4.2016 H         1 UNK         0.0767 
    102 H102       26.6743   24.5255   -5.3313 H         1 UNK         0.0767 
    103 H103       25.0450   24.9132   -4.8079 H         1 UNK         0.0767 
    104 H104       28.0662   24.5918   -2.5790 H         1 UNK         0.3013 
    105 H105       28.3777   28.9426    3.8784 H         1 UNK         0.3121 
    106 H106       28.7149   30.0776    6.4501 H         1 UNK         0.0774 
    107 H107       25.8949   30.4430    5.2759 H         1 UNK         0.0815 
    108 H108       26.5672   31.4047    6.5860 H         1 UNK         0.0815 
    109 H109       26.2887   29.6899    6.8198 H         1 UNK         0.0815 
    110 H110       27.5145   30.5157    3.1115 H         1 UNK         0.2987 
    111 H111       28.4906   33.2448    2.8838 H         1 UNK         0.0949 
    112 H112       27.2961   31.3135    0.8198 H         1 UNK         0.0806 
    113 H113       26.3972   32.5020    1.7645 H         1 UNK         0.0806 
    114 H114       27.5717   33.0321    0.5735 H         1 UNK         0.0806 
    115 H115       29.8560   30.0931    2.2544 H         1 UNK         0.3010 
    116 H116       31.6094   30.7527    0.1263 H         1 UNK         0.0829 
    117 H117       30.8511   28.4758    0.5299 H         1 UNK         0.0813 
    118 H118       32.6013   28.5120    0.6676 H         1 UNK         0.0813 
    119 H119       31.6083   28.4364    2.1196 H         1 UNK         0.0813 
    120 H120       32.2470   32.8430    1.3207 H         1 UNK         0.3038 
    121 H121       33.8869   34.1982    1.9904 H         1 UNK         0.0769 
    122 H122       35.7085   31.9086    1.0467 H         1 UNK         0.0811 
    123 H123       36.2255   33.5736    1.3251 H         1 UNK         0.0811 
    124 H124       35.0669   33.2140    0.0630 H         1 UNK         0.0811 
    125 H125       36.3221   32.0555    3.0034 H         1 UNK         0.3204 
    126 H126       36.2776   32.8715    5.7267 H         1 UNK         0.0748 
    127 H127       38.1049   31.1791    5.9696 H         1 UNK         0.0771 
    128 H128       37.7395   30.5364    4.3745 H         1 UNK         0.0771 
    129 H129       38.3538   32.1815    4.5508 H         1 UNK         0.0771 
    130 H130       34.5905   30.2440    4.1108 H         1 UNK         0.2980 
    131 H131       33.8556   29.0041    6.6897 H         1 UNK         0.0545 
    132 H132       31.0492   31.5336    5.4581 H         1 UNK         0.3459 
    133 H133       32.7484   31.7247    5.0927 H         1 UNK         0.3459 
    134 H134       34.5436   27.7014    4.4115 H         1 UNK         0.0616 
    135 H135       32.8466   27.8808    4.0682 H         1 UNK         0.0616 
    136 H136       33.7937   24.1686    5.4859 H         1 UNK         0.0634 
    137 H137       34.5506   25.2423    4.3392 H         1 UNK         0.0634 
@<TRIPOS>BOND
     1    1    2 1    
     2    1   72 1    
     3    1   73 1    
     4    1   74 1    
     5    2    3 2    
     6    2    4 am   BACKBONE|DICT|INTERRES
     7    4    5 1    
     8    4   75 1    
     9    5    6 1    
    10    5   35 1    
    11    5   76 1    
    12    6    7 1    
    13    6   77 1    
    14    6   78 1    
    15    7    8 1    
    16    8    9 1    
    17    8   79 1    
    18    8   80 1    
    19    9   10 ar   
    20    9   14 ar   
    21   10   11 ar   
    22   10   81 1    
    23   11   12 ar   
    24   11   71 1    
    25   12   13 ar   
    26   12   82 1    
    27   13   14 ar   
    28   13   15 1    
    29   14   83 1    
    30   15   16 1    
    31   15   84 1    
    32   15   85 1    
    33   16   17 1    
    34   17   18 1    
    35   17   86 1    
    36   17   87 1    
    37   18   19 1    
    38   18   37 1    
    39   18   88 1    
    40   19   20 am   BACKBONE|DICT|INTERRES
    41   19   89 1    
    42   20   21 2    
    43   20   22 1    
    44   22   23 1    
    45   22   24 1    
    46   22   90 1    
    47   23   91 1    
    48   23   92 1    
    49   23   93 1    
    50   24   25 am   BACKBONE|DICT|INTERRES
    51   24   94 1    
    52   25   26 2    
    53   25   27 1    
    54   27   28 1    
    55   27   29 1    
    56   27   95 1    
    57   28   96 1    
    58   28   97 1    
    59   28   98 1    
    60   29   30 am   BACKBONE|DICT|INTERRES
    61   29   99 1    
    62   30   31 2    
    63   30   32 1    
    64   32   33 1    
    65   32   34 1    
    66   32  100 1    
    67   33  101 1    
    68   33  102 1    
    69   33  103 1    
    70   34   35 am   BACKBONE|DICT|INTERRES
    71   34  104 1    
    72   35   36 2    
    73   37   38 2    
    74   37   39 am   BACKBONE|DICT|INTERRES
    75   39   40 1    
    76   39  105 1    
    77   40   41 1    
    78   40   42 1    
    79   40  106 1    
    80   41  107 1    
    81   41  108 1    
    82   41  109 1    
    83   42   43 2    
    84   42   44 am   BACKBONE|DICT|INTERRES
    85   44   45 1    
    86   44  110 1    
    87   45   46 1    
    88   45   47 1    
    89   45  111 1    
    90   46  112 1    
    91   46  113 1    
    92   46  114 1    
    93   47   48 2    
    94   47   49 am   BACKBONE|DICT|INTERRES
    95   49   50 1    
    96   49  115 1    
    97   50   51 1    
    98   50   52 1    
    99   50  116 1    
   100   51  117 1    
   101   51  118 1    
   102   51  119 1    
   103   52   53 2    
   104   52   54 am   BACKBONE|DICT|INTERRES
   105   54   55 1    
   106   54  120 1    
   107   55   56 1    
   108   55   57 1    
   109   55  121 1    
   110   56  122 1    
   111   56  123 1    
   112   56  124 1    
   113   57   58 2    
   114   57   59 am   BACKBONE|DICT|INTERRES
   115   59   60 1    
   116   59  125 1    
   117   60   61 1    
   118   60   62 1    
   119   60  126 1    
   120   61  127 1    
   121   61  128 1    
   122   61  129 1    
   123   62   63 2    
   124   62   64 am   BACKBONE|DICT|INTERRES
   125   64   65 1    
   126   64  130 1    
   127   65   66 1    
   128   65   69 1    
   129   65  131 1    
   130   66   67 am   BACKBONE|DICT|INTERRES
   131   66   68 2    
   132   67  132 1    
   133   67  133 1    
   134   69   70 1    
   135   69  134 1    
   136   69  135 1    
   137   70   71 1    
   138   71  136 1    
   139   71  137 1    
@<TRIPOS>SUBSTRUCTURE
     1 UNK         1 GROUP             0       ****    0 ROOT    
