@<TRIPOS>MOLECULE
3R136
137   139    1
SMALL
USER_CHARGES


@<TRIPOS>ATOM
      1 CA         25.2735   20.6462    0.1775 C.3       0 UNK        -0.1979 
      2 C          26.4236   21.6330    0.0518 C.2       0 UNK         0.4864 
      3 O          26.2532   22.6954   -0.5451 O.2       0 UNK        -0.5359 
      4 N          27.5888   21.3039    0.6256 N.am      1 UNK        -0.4318 
      5 CA         28.8197   22.1075    0.5863 C.3       1 UNK         0.0824 
      6 C6         30.0002   21.3503    1.2601 C.3       12 UNK        -0.0944 
      7 S7         31.5218   21.3819    0.2586 S.3       12 UNK        -0.2672 
      8 C8         32.7741   21.8616    1.4911 C.3       12 UNK         0.0333 
      9 C9         32.6594   23.3311    1.8634 C.ar      12 UNK        -0.0807 
     10 C10        32.2225   23.7155    3.1358 C.ar      12 UNK        -0.0894 
     11 C11        32.0979   25.0680    3.4717 C.ar      12 UNK        -0.0804 
     12 C12        32.4214   26.0336    2.5098 C.ar      12 UNK        -0.0824 
     13 C13        32.8511   25.6616    1.2335 C.ar      12 UNK        -0.0762 
     14 C14        32.9809   24.3090    0.9196 C.ar      12 UNK        -0.0782 
     15 C15        33.1267   26.7225    0.1790 C.3       12 UNK         0.0230 
     16 S16        31.6531   27.0361   -0.8475 S.3       12 UNK        -0.2608 
     17 C17        30.4812   27.6056    0.4263 C.3       12 UNK        -0.0989 
     18 CA         29.1509   28.1340   -0.1507 C.3       5 UNK         0.0716 
     19 N          28.3791   27.0726   -0.7968 N.am      5 UNK        -0.4135 
     20 C          27.5171   27.2649   -1.8025 C.2       4 UNK         0.5031 
     21 O          27.3419   28.3530   -2.3540 O.2       4 UNK        -0.5229 
     22 CA         26.6620   26.0572   -2.2170 C.3       4 UNK         0.0329 
     23 CB         27.5166   24.9715   -2.8921 C.3       4 UNK        -0.2001 
     24 N          25.9480   25.4849   -1.0747 N.am      4 UNK        -0.4303 
     25 C          24.9938   26.1109   -0.3678 C.2       3 UNK         0.5044 
     26 O          24.5295   27.2129   -0.6599 O.2       3 UNK        -0.5152 
     27 CA         24.4952   25.3983    0.8984 C.3       3 UNK         0.0319 
     28 CB         23.4532   24.3191    0.5603 C.3       3 UNK        -0.2001 
     29 N          25.6185   24.8110    1.6334 N.am      3 UNK        -0.4354 
     30 C          26.3830   25.4987    2.4955 C.2       2 UNK         0.4964 
     31 O          26.1181   26.6429    2.8619 O.2       2 UNK        -0.5047 
     32 CA         27.6390   24.8099    3.0675 C.3       2 UNK         0.0288 
     33 CB         27.4458   24.4919    4.5600 C.3       2 UNK        -0.2113 
     34 N          28.0118   23.5764    2.3698 N.am      2 UNK        -0.4145 
     35 C          28.6130   23.5231    1.1722 C.2       1 UNK         0.5006 
     36 O          28.9123   24.5198    0.5124 O.2       1 UNK        -0.5103 
     37 C          28.2821   28.7775    0.9465 C.2       5 UNK         0.5055 
     38 O          28.5403   28.5718    2.1333 O.2       5 UNK        -0.5220 
     39 N          27.2550   29.5311    0.5285 N.am      6 UNK        -0.4450 
     40 CA         26.2977   30.2059    1.4130 C.3       6 UNK         0.0367 
     41 CB         25.1690   30.8163    0.5675 C.3       6 UNK        -0.1929 
     42 C          26.9350   31.2752    2.3214 C.2       6 UNK         0.5070 
     43 O          26.4280   31.5201    3.4168 O.2       6 UNK        -0.5237 
     44 N          28.0383   31.8817    1.8633 N.am      7 UNK        -0.4739 
     45 CA         28.8930   32.7581    2.6588 C.3       7 UNK         0.0276 
     46 CB         29.7004   33.6697    1.7176 C.3       7 UNK        -0.1927 
     47 C          29.8161   31.8989    3.5361 C.2       7 UNK         0.5013 
     48 O          30.8074   31.3679    3.0318 O.2       7 UNK        -0.5193 
     49 N          29.4849   31.7826    4.8301 N.am      8 UNK        -0.4253 
     50 CA         30.1970   30.9623    5.8221 C.3       8 UNK         0.0242 
     51 CB         29.4636   31.0469    7.1702 C.3       8 UNK        -0.2000 
     52 C          31.6896   31.3033    6.0001 C.2       8 UNK         0.4948 
     53 O          32.4603   30.4415    6.4206 O.2       8 UNK        -0.5275 
     54 N          32.0873   32.5297    5.6335 N.am      9 UNK        -0.4246 
     55 CA         33.4798   32.9794    5.5631 C.3       9 UNK         0.0261 
     56 CB         33.5035   34.4842    5.2483 C.3       9 UNK        -0.1959 
     57 C          34.3419   32.2035    4.5453 C.2       9 UNK         0.5033 
     58 O          35.5664   32.2151    4.6782 O.2       9 UNK        -0.5390 
     59 N          33.7119   31.5473    3.5579 N.am      10 UNK        -0.4215 
     60 CA         34.3868   30.7104    2.5642 C.3       10 UNK         0.0240 
     61 CB         33.4947   30.5894    1.3176 C.3       10 UNK        -0.1982 
     62 C          34.7729   29.3148    3.0916 C.2       10 UNK         0.4970 
     63 O          35.5686   28.6435    2.4331 O.2       10 UNK        -0.4916 
     64 N          34.2110   28.8837    4.2312 N.am      11 UNK        -0.4279 
     65 CA         34.5266   27.5947    4.8670 C.3       11 UNK         0.1003 
     66 C          35.9660   27.5542    5.4490 C.2       11 UNK         0.5709 
     67 N          36.6102   26.3949    5.4297 N.am      11 UNK        -0.7358 
     68 O          36.4869   28.5472    5.9541 O.2       11 UNK        -0.4999 
     69 C69        33.4902   27.2015    5.9525 C.3       12 UNK        -0.0954 
     70 S70        31.7632   27.1762    5.3614 S.3       12 UNK        -0.2268 
     71 C71        31.5523   25.4327    4.8549 C.3       12 UNK         0.0203 
     72 H72        25.5710   19.7363    0.6984 H         1 UNK         0.0888 
     73 H73        24.4488   21.0990    0.7271 H         1 UNK         0.0888 
     74 H74        24.9115   20.3677   -0.8117 H         1 UNK         0.0888 
     75 H75        27.6616   20.4161    1.1021 H         1 UNK         0.3017 
     76 H76        29.0442   22.2436   -0.4741 H         1 UNK         0.0873 
     77 H77        30.2014   21.7174    2.2682 H         1 UNK         0.0745 
     78 H78        29.7581   20.2944    1.3919 H         1 UNK         0.0745 
     79 H79        33.7657   21.6758    1.0760 H         1 UNK         0.0705 
     80 H80        32.6863   21.2220    2.3709 H         1 UNK         0.0705 
     81 H81        31.9619   22.9589    3.8634 H         1 UNK         0.1334 
     82 H82        32.3077   27.0849    2.7298 H         1 UNK         0.1417 
     83 H83        33.2996   24.0150   -0.0714 H         1 UNK         0.1562 
     84 H84        33.9488   26.4050   -0.4640 H         1 UNK         0.0748 
     85 H85        33.4500   27.6512    0.6499 H         1 UNK         0.0748 
     86 H86        30.9752   28.3808    1.0144 H         1 UNK         0.0940 
     87 H87        30.2759   26.7801    1.1096 H         1 UNK         0.0940 
     88 H88        29.3910   28.9117   -0.8793 H         1 UNK         0.0703 
     89 H89        28.4727   26.1454   -0.3877 H         1 UNK         0.3081 
     90 H90        25.9189   26.4037   -2.9382 H         1 UNK         0.0719 
     91 H91        28.2545   24.5493   -2.2087 H         1 UNK         0.0809 
     92 H92        26.8966   24.1518   -3.2559 H         1 UNK         0.0809 
     93 H93        28.0570   25.3759   -3.7489 H         1 UNK         0.0809 
     94 H94        26.2103   24.5397   -0.8025 H         1 UNK         0.2990 
     95 H95        24.0025   26.1413    1.5297 H         1 UNK         0.0690 
     96 H96        23.8402   23.5720   -0.1318 H         1 UNK         0.0788 
     97 H97        22.5760   24.7663    0.0908 H         1 UNK         0.0788 
     98 H98        23.1116   23.8022    1.4571 H         1 UNK         0.0788 
     99 H99        25.9122   23.8872    1.3482 H         1 UNK         0.2993 
    100 H100       28.4642   25.5205    2.9717 H         1 UNK         0.0949 
    101 H101       26.6091   23.8112    4.7224 H         1 UNK         0.0767 
    102 H102       28.3375   24.0360    4.9902 H         1 UNK         0.0767 
    103 H103       27.2424   25.4006    5.1284 H         1 UNK         0.0767 
    104 H104       27.7697   22.7082    2.8252 H         1 UNK         0.3013 
    105 H105       27.0888   29.5981   -0.4686 H         1 UNK         0.3121 
    106 H106       25.8636   29.4441    2.0645 H         1 UNK         0.0774 
    107 H107       24.4252   31.3005    1.2019 H         1 UNK         0.0815 
    108 H108       25.5453   31.5683   -0.1271 H         1 UNK         0.0815 
    109 H109       24.6501   30.0515   -0.0112 H         1 UNK         0.0815 
    110 H110       28.3987   31.5939    0.9655 H         1 UNK         0.2987 
    111 H111       28.2744   33.3932    3.2972 H         1 UNK         0.0949 
    112 H112       30.3237   33.0974    1.0290 H         1 UNK         0.0806 
    113 H113       29.0438   34.3056    1.1235 H         1 UNK         0.0806 
    114 H114       30.3615   34.3266    2.2843 H         1 UNK         0.0806 
    115 H115       28.6357   32.2297    5.1465 H         1 UNK         0.3010 
    116 H116       30.1507   29.9286    5.4725 H         1 UNK         0.0829 
    117 H117       29.9522   30.4221    7.9195 H         1 UNK         0.0813 
    118 H118       29.4455   32.0665    7.5570 H         1 UNK         0.0813 
    119 H119       28.4338   30.6992    7.0851 H         1 UNK         0.0813 
    120 H120       31.3842   33.1763    5.3076 H         1 UNK         0.3038 
    121 H121       33.9264   32.8261    6.5478 H         1 UNK         0.0769 
    122 H122       34.5271   34.8607    5.2195 H         1 UNK         0.0811 
    123 H123       32.9716   35.0583    6.0072 H         1 UNK         0.0811 
    124 H124       33.0497   34.7015    4.2804 H         1 UNK         0.0811 
    125 H125       32.6962   31.5785    3.5028 H         1 UNK         0.3204 
    126 H126       35.3110   31.2092    2.2645 H         1 UNK         0.0748 
    127 H127       34.0106   30.0585    0.5166 H         1 UNK         0.0771 
    128 H128       32.5761   30.0442    1.5334 H         1 UNK         0.0771 
    129 H129       33.2178   31.5696    0.9290 H         1 UNK         0.0771 
    130 H130       33.5923   29.4924    4.7518 H         1 UNK         0.2980 
    131 H131       34.4854   26.8363    4.0846 H         1 UNK         0.0545 
    132 H132       36.1901   25.5708    5.0290 H         1 UNK         0.3459 
    133 H133       37.5394   26.3451    5.8172 H         1 UNK         0.3459 
    134 H134       33.7296   26.2234    6.3731 H         1 UNK         0.0616 
    135 H135       33.5383   27.9043    6.7862 H         1 UNK         0.0616 
    136 H136       30.4835   25.2189    4.8552 H         1 UNK         0.0634 
    137 H137       31.9938   24.7843    5.6130 H         1 UNK         0.0634 
@<TRIPOS>BOND
     1    1    2 1    
     2    1   72 1    
     3    1   73 1    
     4    1   74 1    
     5    2    3 2    
     6    2    4 am   BACKBONE|DICT|INTERRES
     7    4    5 1    
     8    4   75 1    
     9    5    6 1    
    10    5   35 1    
    11    5   76 1    
    12    6    7 1    
    13    6   77 1    
    14    6   78 1    
    15    7    8 1    
    16    8    9 1    
    17    8   79 1    
    18    8   80 1    
    19    9   10 ar   
    20    9   14 ar   
    21   10   11 ar   
    22   10   81 1    
    23   11   12 ar   
    24   11   71 1    
    25   12   13 ar   
    26   12   82 1    
    27   13   14 ar   
    28   13   15 1    
    29   14   83 1    
    30   15   16 1    
    31   15   84 1    
    32   15   85 1    
    33   16   17 1    
    34   17   18 1    
    35   17   86 1    
    36   17   87 1    
    37   18   19 1    
    38   18   37 1    
    39   18   88 1    
    40   19   20 am   BACKBONE|DICT|INTERRES
    41   19   89 1    
    42   20   21 2    
    43   20   22 1    
    44   22   23 1    
    45   22   24 1    
    46   22   90 1    
    47   23   91 1    
    48   23   92 1    
    49   23   93 1    
    50   24   25 am   BACKBONE|DICT|INTERRES
    51   24   94 1    
    52   25   26 2    
    53   25   27 1    
    54   27   28 1    
    55   27   29 1    
    56   27   95 1    
    57   28   96 1    
    58   28   97 1    
    59   28   98 1    
    60   29   30 am   BACKBONE|DICT|INTERRES
    61   29   99 1    
    62   30   31 2    
    63   30   32 1    
    64   32   33 1    
    65   32   34 1    
    66   32  100 1    
    67   33  101 1    
    68   33  102 1    
    69   33  103 1    
    70   34   35 am   BACKBONE|DICT|INTERRES
    71   34  104 1    
    72   35   36 2    
    73   37   38 2    
    74   37   39 am   BACKBONE|DICT|INTERRES
    75   39   40 1    
    76   39  105 1    
    77   40   41 1    
    78   40   42 1    
    79   40  106 1    
    80   41  107 1    
    81   41  108 1    
    82   41  109 1    
    83   42   43 2    
    84   42   44 am   BACKBONE|DICT|INTERRES
    85   44   45 1    
    86   44  110 1    
    87   45   46 1    
    88   45   47 1    
    89   45  111 1    
    90   46  112 1    
    91   46  113 1    
    92   46  114 1    
    93   47   48 2    
    94   47   49 am   BACKBONE|DICT|INTERRES
    95   49   50 1    
    96   49  115 1    
    97   50   51 1    
    98   50   52 1    
    99   50  116 1    
   100   51  117 1    
   101   51  118 1    
   102   51  119 1    
   103   52   53 2    
   104   52   54 am   BACKBONE|DICT|INTERRES
   105   54   55 1    
   106   54  120 1    
   107   55   56 1    
   108   55   57 1    
   109   55  121 1    
   110   56  122 1    
   111   56  123 1    
   112   56  124 1    
   113   57   58 2    
   114   57   59 am   BACKBONE|DICT|INTERRES
   115   59   60 1    
   116   59  125 1    
   117   60   61 1    
   118   60   62 1    
   119   60  126 1    
   120   61  127 1    
   121   61  128 1    
   122   61  129 1    
   123   62   63 2    
   124   62   64 am   BACKBONE|DICT|INTERRES
   125   64   65 1    
   126   64  130 1    
   127   65   66 1    
   128   65   69 1    
   129   65  131 1    
   130   66   67 am   BACKBONE|DICT|INTERRES
   131   66   68 2    
   132   67  132 1    
   133   67  133 1    
   134   69   70 1    
   135   69  134 1    
   136   69  135 1    
   137   70   71 1    
   138   71  136 1    
   139   71  137 1    
@<TRIPOS>SUBSTRUCTURE
     1 UNK         1 GROUP             0       ****    0 ROOT    
