@<TRIPOS>MOLECULE
3R136
137   139    1
SMALL
USER_CHARGES


@<TRIPOS>ATOM
      1 CA         27.8573   20.8362    1.7969 C.3       0 UNK        -0.1979 
      2 C          28.3030   21.5206    0.5133 C.2       0 UNK         0.4864 
      3 O          28.4938   20.8502   -0.5027 O.2       0 UNK        -0.5359 
      4 N          28.4763   22.8479    0.5559 N.am      1 UNK        -0.4318 
      5 CA         28.8272   23.6823   -0.5987 C.3       1 UNK         0.0824 
      6 C6         29.5176   25.0010   -0.1523 C.3       12 UNK        -0.0944 
      7 S7         30.9977   25.3830   -1.1499 S.3       12 UNK        -0.2672 
      8 C8         32.2219   24.1742   -0.5352 C.3       12 UNK         0.0333 
      9 C9         32.5030   24.3234    0.9537 C.ar      12 UNK        -0.0807 
     10 C10        33.4347   25.2587    1.4112 C.ar      12 UNK        -0.0894 
     11 C11        33.6875   25.4149    2.7788 C.ar      12 UNK        -0.0804 
     12 C12        32.9844   24.6134    3.6924 C.ar      12 UNK        -0.0824 
     13 C13        32.0560   23.6665    3.2455 C.ar      12 UNK        -0.0762 
     14 C14        31.8351   23.5153    1.8757 C.ar      12 UNK        -0.0782 
     15 C15        31.2996   22.7866    4.2317 C.3       12 UNK         0.0230 
     16 S16        29.5121   23.1493    4.2486 S.3       12 UNK        -0.2608 
     17 C17        29.4711   24.7841    5.0537 C.3       12 UNK        -0.0989 
     18 CA         29.0653   25.9083    4.0721 C.3       5 UNK         0.0716 
     19 N          27.7112   25.7341    3.5230 N.am      5 UNK        -0.4135 
     20 C          27.1952   26.5100    2.5602 C.2       4 UNK         0.5031 
     21 O          27.8247   27.4099    1.9976 O.2       4 UNK        -0.5229 
     22 CA         25.7229   26.2988    2.1962 C.3       4 UNK         0.0329 
     23 CB         24.8149   27.0632    3.1800 C.3       4 UNK        -0.2001 
     24 N          25.5585   26.8046    0.8391 N.am      4 UNK        -0.4303 
     25 C          24.5004   26.6769    0.0336 C.2       3 UNK         0.5044 
     26 O          23.4420   26.1333    0.3492 O.2       3 UNK        -0.5152 
     27 CA         24.7039   27.1774   -1.3998 C.3       3 UNK         0.0319 
     28 CB         25.3545   28.5801   -1.4421 C.3       3 UNK        -0.2001 
     29 N          25.5264   26.1656   -2.0541 N.am      3 UNK        -0.4354 
     30 C          25.9757   26.1224   -3.3105 C.2       2 UNK         0.4964 
     31 O          25.7482   26.9953   -4.1498 O.2       2 UNK        -0.5047 
     32 CA         26.8218   24.8817   -3.6869 C.3       2 UNK         0.0288 
     33 CB         27.5198   25.0356   -5.0519 C.3       2 UNK        -0.2113 
     34 N          27.8330   24.5206   -2.6808 N.am      2 UNK        -0.4145 
     35 C          27.5968   23.9518   -1.4896 C.2       1 UNK         0.5006 
     36 O          26.4616   23.6956   -1.0769 O.2       1 UNK        -0.5103 
     37 C          29.2319   27.2888    4.7377 C.2       5 UNK         0.5055 
     38 O          30.2541   27.9355    4.5330 O.2       5 UNK        -0.5220 
     39 N          28.1965   27.7497    5.4561 N.am      6 UNK        -0.4450 
     40 CA         28.1414   29.0697    6.0949 C.3       6 UNK         0.0367 
     41 CB         26.8595   29.1655    6.9379 C.3       6 UNK        -0.1929 
     42 C          28.2236   30.2553    5.1126 C.2       6 UNK         0.5070 
     43 O          28.6312   31.3435    5.5194 O.2       6 UNK        -0.5237 
     44 N          27.8354   30.0297    3.8502 N.am      7 UNK        -0.4739 
     45 CA         27.8913   31.0135    2.7693 C.3       7 UNK         0.0276 
     46 CB         26.6691   30.8056    1.8574 C.3       7 UNK        -0.1927 
     47 C          29.1900   30.9201    1.9485 C.2       7 UNK         0.5013 
     48 O          29.4445   31.8131    1.1376 O.2       7 UNK        -0.5193 
     49 N          29.9838   29.8560    2.1364 N.am      8 UNK        -0.4253 
     50 CA         31.1719   29.5469    1.3410 C.3       8 UNK         0.0242 
     51 CB         31.4087   28.0293    1.3608 C.3       8 UNK        -0.2000 
     52 C          32.4016   30.3521    1.7950 C.2       8 UNK         0.4948 
     53 O          33.3799   29.7776    2.2793 O.2       8 UNK        -0.5275 
     54 N          32.3241   31.6779    1.6109 N.am      9 UNK        -0.4246 
     55 CA         33.3701   32.6783    1.8459 C.3       9 UNK         0.0261 
     56 CB         34.4426   32.5913    0.7358 C.3       9 UNK        -0.1959 
     57 C          33.9381   32.5956    3.2748 C.2       9 UNK         0.5033 
     58 O          33.2286   32.9409    4.2209 O.2       9 UNK        -0.5390 
     59 N          35.1829   32.1171    3.4097 N.am      10 UNK        -0.4215 
     60 CA         35.8993   31.9310    4.6740 C.3       10 UNK         0.0240 
     61 CB         37.3343   31.4665    4.3759 C.3       10 UNK        -0.1982 
     62 C          35.2172   30.9641    5.6595 C.2       10 UNK         0.4970 
     63 O          35.4158   31.1167    6.8658 O.2       10 UNK        -0.4916 
     64 N          34.4284   30.0082    5.1498 N.am      11 UNK        -0.4279 
     65 CA         33.5999   29.1135    5.9719 C.3       11 UNK         0.1003 
     66 C          32.2723   29.7628    6.4640 C.2       11 UNK         0.5709 
     67 N          31.8747   30.9385    5.9879 N.am      11 UNK        -0.7358 
     68 O          31.6049   29.1999    7.3284 O.2       11 UNK        -0.4999 
     69 C69        33.3416   27.7557    5.2710 C.3       12 UNK        -0.0954 
     70 S70        34.8681   26.8016    4.9851 S.3       12 UNK        -0.2268 
     71 C71        34.7431   26.4450    3.1976 C.3       12 UNK         0.0203 
     72 H72        27.0566   20.1272    1.5881 H         1 UNK         0.0888 
     73 H73        28.6902   20.2916    2.2408 H         1 UNK         0.0888 
     74 H74        27.4873   21.5520    2.5306 H         1 UNK         0.0888 
     75 H75        28.2811   23.3411    1.4143 H         1 UNK         0.3017 
     76 H76        29.5221   23.1015   -1.2088 H         1 UNK         0.0873 
     77 H77        29.8111   24.9670    0.8962 H         1 UNK         0.0745 
     78 H78        28.8420   25.8575   -0.2086 H         1 UNK         0.0745 
     79 H79        31.8787   23.1628   -0.7567 H         1 UNK         0.0705 
     80 H80        33.1494   24.3036   -1.0950 H         1 UNK         0.0705 
     81 H81        33.9625   25.8748    0.6959 H         1 UNK         0.1334 
     82 H82        33.1596   24.7104    4.7537 H         1 UNK         0.1417 
     83 H83        31.1232   22.7791    1.5294 H         1 UNK         0.1562 
     84 H84        31.7021   22.8882    5.2408 H         1 UNK         0.0748 
     85 H85        31.4408   21.7413    3.9532 H         1 UNK         0.0748 
     86 H86        30.4520   24.9914    5.4870 H         1 UNK         0.0940 
     87 H87        28.7773   24.7346    5.8951 H         1 UNK         0.0940 
     88 H88        29.7625   25.8824    3.2310 H         1 UNK         0.0703 
     89 H89        27.1446   25.0095    3.9402 H         1 UNK         0.3081 
     90 H90        25.4924   25.2318    2.2114 H         1 UNK         0.0719 
     91 H91        25.0168   28.1352    3.1643 H         1 UNK         0.0809 
     92 H92        23.7601   26.9211    2.9453 H         1 UNK         0.0809 
     93 H93        24.9614   26.7168    4.2036 H         1 UNK         0.0809 
     94 H94        26.3920   27.2656    0.4922 H         1 UNK         0.2990 
     95 H95        23.7312   27.2161   -1.8937 H         1 UNK         0.0690 
     96 H96        24.8265   29.2765   -0.7891 H         1 UNK         0.0788 
     97 H97        25.3196   29.0021   -2.4462 H         1 UNK         0.0788 
     98 H98        26.3994   28.5626   -1.1304 H         1 UNK         0.0788 
     99 H99        25.7334   25.3509   -1.4782 H         1 UNK         0.2993 
    100 H100       26.1205   24.0484   -3.7698 H         1 UNK         0.0949 
    101 H101       28.0625   24.1303   -5.3251 H         1 UNK         0.0767 
    102 H102       26.7956   25.2251   -5.8455 H         1 UNK         0.0767 
    103 H103       28.2281   25.8652   -5.0501 H         1 UNK         0.0767 
    104 H104       28.7890   24.7527   -2.9130 H         1 UNK         0.3013 
    105 H105       27.3872   27.1578    5.5708 H         1 UNK         0.3121 
    106 H106       28.9983   29.1470    6.7662 H         1 UNK         0.0774 
    107 H107       26.8015   30.1269    7.4504 H         1 UNK         0.0815 
    108 H108       25.9634   29.0702    6.3233 H         1 UNK         0.0815 
    109 H109       26.8280   28.3912    7.7047 H         1 UNK         0.0815 
    110 H110       27.5612   29.0933    3.5850 H         1 UNK         0.2987 
    111 H111       27.8401   32.0229    3.1836 H         1 UNK         0.0949 
    112 H112       26.6756   29.8203    1.3902 H         1 UNK         0.0806 
    113 H113       25.7369   30.9071    2.4132 H         1 UNK         0.0806 
    114 H114       26.6488   31.5449    1.0555 H         1 UNK         0.0806 
    115 H115       29.7553   29.1957    2.8705 H         1 UNK         0.3010 
    116 H116       30.9739   29.8222    0.3027 H         1 UNK         0.0829 
    117 H117       30.5208   27.4877    1.0371 H         1 UNK         0.0813 
    118 H118       32.2203   27.7582    0.6858 H         1 UNK         0.0813 
    119 H119       31.6742   27.6657    2.3519 H         1 UNK         0.0813 
    120 H120       31.4319   32.0356    1.2816 H         1 UNK         0.3038 
    121 H121       32.8905   33.6551    1.7659 H         1 UNK         0.0769 
    122 H122       34.9192   31.6112    0.6933 H         1 UNK         0.0811 
    123 H123       35.2234   33.3399    0.8786 H         1 UNK         0.0811 
    124 H124       34.0016   32.7790   -0.2433 H         1 UNK         0.0811 
    125 H125       35.6631   31.8224    2.5719 H         1 UNK         0.3204 
    126 H126       35.9497   32.9058    5.1636 H         1 UNK         0.0748 
    127 H127       37.9062   31.3487    5.2976 H         1 UNK         0.0771 
    128 H128       37.3477   30.5056    3.8595 H         1 UNK         0.0771 
    129 H129       37.8669   32.1895    3.7577 H         1 UNK         0.0771 
    130 H130       34.2787   29.9567    4.1473 H         1 UNK         0.2980 
    131 H131       34.1575   28.8882    6.8831 H         1 UNK         0.0545 
    132 H132       30.9966   31.3213    6.3024 H         1 UNK         0.3459 
    133 H133       32.4321   31.4549    5.3172 H         1 UNK         0.3459 
    134 H134       32.6751   27.1295    5.8667 H         1 UNK         0.0616 
    135 H135       32.8352   27.9221    4.3212 H         1 UNK         0.0616 
    136 H136       34.5655   27.3826    2.6691 H         1 UNK         0.0634 
    137 H137       35.7167   26.0857    2.8625 H         1 UNK         0.0634 
@<TRIPOS>BOND
     1    1    2 1    
     2    1   72 1    
     3    1   73 1    
     4    1   74 1    
     5    2    3 2    
     6    2    4 am   BACKBONE|DICT|INTERRES
     7    4    5 1    
     8    4   75 1    
     9    5    6 1    
    10    5   35 1    
    11    5   76 1    
    12    6    7 1    
    13    6   77 1    
    14    6   78 1    
    15    7    8 1    
    16    8    9 1    
    17    8   79 1    
    18    8   80 1    
    19    9   10 ar   
    20    9   14 ar   
    21   10   11 ar   
    22   10   81 1    
    23   11   12 ar   
    24   11   71 1    
    25   12   13 ar   
    26   12   82 1    
    27   13   14 ar   
    28   13   15 1    
    29   14   83 1    
    30   15   16 1    
    31   15   84 1    
    32   15   85 1    
    33   16   17 1    
    34   17   18 1    
    35   17   86 1    
    36   17   87 1    
    37   18   19 1    
    38   18   37 1    
    39   18   88 1    
    40   19   20 am   BACKBONE|DICT|INTERRES
    41   19   89 1    
    42   20   21 2    
    43   20   22 1    
    44   22   23 1    
    45   22   24 1    
    46   22   90 1    
    47   23   91 1    
    48   23   92 1    
    49   23   93 1    
    50   24   25 am   BACKBONE|DICT|INTERRES
    51   24   94 1    
    52   25   26 2    
    53   25   27 1    
    54   27   28 1    
    55   27   29 1    
    56   27   95 1    
    57   28   96 1    
    58   28   97 1    
    59   28   98 1    
    60   29   30 am   BACKBONE|DICT|INTERRES
    61   29   99 1    
    62   30   31 2    
    63   30   32 1    
    64   32   33 1    
    65   32   34 1    
    66   32  100 1    
    67   33  101 1    
    68   33  102 1    
    69   33  103 1    
    70   34   35 am   BACKBONE|DICT|INTERRES
    71   34  104 1    
    72   35   36 2    
    73   37   38 2    
    74   37   39 am   BACKBONE|DICT|INTERRES
    75   39   40 1    
    76   39  105 1    
    77   40   41 1    
    78   40   42 1    
    79   40  106 1    
    80   41  107 1    
    81   41  108 1    
    82   41  109 1    
    83   42   43 2    
    84   42   44 am   BACKBONE|DICT|INTERRES
    85   44   45 1    
    86   44  110 1    
    87   45   46 1    
    88   45   47 1    
    89   45  111 1    
    90   46  112 1    
    91   46  113 1    
    92   46  114 1    
    93   47   48 2    
    94   47   49 am   BACKBONE|DICT|INTERRES
    95   49   50 1    
    96   49  115 1    
    97   50   51 1    
    98   50   52 1    
    99   50  116 1    
   100   51  117 1    
   101   51  118 1    
   102   51  119 1    
   103   52   53 2    
   104   52   54 am   BACKBONE|DICT|INTERRES
   105   54   55 1    
   106   54  120 1    
   107   55   56 1    
   108   55   57 1    
   109   55  121 1    
   110   56  122 1    
   111   56  123 1    
   112   56  124 1    
   113   57   58 2    
   114   57   59 am   BACKBONE|DICT|INTERRES
   115   59   60 1    
   116   59  125 1    
   117   60   61 1    
   118   60   62 1    
   119   60  126 1    
   120   61  127 1    
   121   61  128 1    
   122   61  129 1    
   123   62   63 2    
   124   62   64 am   BACKBONE|DICT|INTERRES
   125   64   65 1    
   126   64  130 1    
   127   65   66 1    
   128   65   69 1    
   129   65  131 1    
   130   66   67 am   BACKBONE|DICT|INTERRES
   131   66   68 2    
   132   67  132 1    
   133   67  133 1    
   134   69   70 1    
   135   69  134 1    
   136   69  135 1    
   137   70   71 1    
   138   71  136 1    
   139   71  137 1    
@<TRIPOS>SUBSTRUCTURE
     1 UNK         1 GROUP             0       ****    0 ROOT    
