@<TRIPOS>MOLECULE
3R136
137   139    1
SMALL
USER_CHARGES


@<TRIPOS>ATOM
      1 CA         28.9597   20.3442    1.2335 C.3       0 UNK        -0.1979 
      2 C          29.0592   21.1187   -0.0719 C.2       0 UNK         0.4864 
      3 O          28.6527   20.6143   -1.1204 O.2       0 UNK        -0.5359 
      4 N          29.5812   22.3504   -0.0197 N.am      1 UNK        -0.4318 
      5 CA         29.7525   23.2699   -1.1508 C.3       1 UNK         0.0824 
      6 C6         30.9482   24.2341   -0.9135 C.3       12 UNK        -0.0944 
      7 S7         30.7864   25.3178    0.5447 S.3       12 UNK        -0.2672 
      8 C8         31.5932   24.3744    1.8735 C.3       12 UNK         0.0333 
      9 C9         31.2702   25.0339    3.2023 C.ar      12 UNK        -0.0807 
     10 C10        32.2349   25.7905    3.8709 C.ar      12 UNK        -0.0894 
     11 C11        31.8973   26.5062    5.0217 C.ar      12 UNK        -0.0804 
     12 C12        30.5883   26.4485    5.5109 C.ar      12 UNK        -0.0824 
     13 C13        29.6196   25.6718    4.8664 C.ar      12 UNK        -0.0762 
     14 C14        29.9753   24.9495    3.7231 C.ar      12 UNK        -0.0782 
     15 C15        28.1868   25.6526    5.3951 C.3       12 UNK         0.0230 
     16 S16        26.9059   25.8563    4.1035 S.3       12 UNK        -0.2608 
     17 C17        27.4672   27.3435    3.2037 C.3       12 UNK        -0.0989 
     18 CA         27.4796   27.1000    1.6672 C.3       5 UNK         0.0716 
     19 N          26.1323   27.0150    1.0818 N.am      5 UNK        -0.4135 
     20 C          25.2309   28.0121    1.0035 C.2       4 UNK         0.5031 
     21 O          25.3922   29.1265    1.5021 O.2       4 UNK        -0.5229 
     22 CA         23.9292   27.7650    0.2158 C.3       4 UNK         0.0329 
     23 CB         23.9868   28.4889   -1.1404 C.3       4 UNK        -0.2001 
     24 N          23.6367   26.3542   -0.0215 N.am      4 UNK        -0.4303 
     25 C          23.1968   25.4861    0.8990 C.2       3 UNK         0.5044 
     26 O          22.8942   25.7994    2.0505 O.2       3 UNK        -0.5152 
     27 CA         23.0968   24.0110    0.4606 C.3       3 UNK         0.0319 
     28 CB         21.6409   23.6457    0.1285 C.3       3 UNK        -0.2001 
     29 N          23.9540   23.6712   -0.6849 N.am      3 UNK        -0.4354 
     30 C          25.2923   23.7507   -0.6854 C.2       2 UNK         0.4964 
     31 O          25.9444   24.1122    0.2968 O.2       2 UNK        -0.5047 
     32 CA         25.9871   23.4105   -2.0167 C.3       2 UNK         0.0288 
     33 CB         25.7497   24.5118   -3.0727 C.3       2 UNK        -0.2113 
     34 N          27.4161   23.1239   -1.8444 N.am      2 UNK        -0.4145 
     35 C          28.4114   23.9590   -1.5082 C.2       1 UNK         0.5006 
     36 O          28.2911   25.1852   -1.4386 O.2       1 UNK        -0.5103 
     37 C          28.3215   28.1419    0.9007 C.2       5 UNK         0.5055 
     38 O          28.6711   29.1857    1.4549 O.2       5 UNK        -0.5220 
     39 N          28.5934   27.8520   -0.3808 N.am      6 UNK        -0.4450 
     40 CA         29.1975   28.7646   -1.3589 C.3       6 UNK         0.0367 
     41 CB         29.2758   28.0577   -2.7213 C.3       6 UNK        -0.1929 
     42 C          30.5753   29.3364   -0.9760 C.2       6 UNK         0.5070 
     43 O          30.9049   30.4391   -1.4143 O.2       6 UNK        -0.5237 
     44 N          31.3520   28.5986   -0.1710 N.am      7 UNK        -0.4739 
     45 CA         32.6518   29.0371    0.3473 C.3       7 UNK         0.0276 
     46 CB         33.4308   27.8161    0.8537 C.3       7 UNK        -0.1927 
     47 C          32.5449   30.1145    1.4451 C.2       7 UNK         0.5013 
     48 O          33.5159   30.8459    1.6453 O.2       7 UNK        -0.5193 
     49 N          31.3798   30.1981    2.1111 N.am      8 UNK        -0.4253 
     50 CA         30.9364   31.2090    3.0801 C.3       8 UNK         0.0242 
     51 CB         30.2811   32.3809    2.3177 C.3       8 UNK        -0.2000 
     52 C          32.0191   31.6603    4.0799 C.2       8 UNK         0.4948 
     53 O          32.2992   30.9445    5.0441 O.2       8 UNK        -0.5275 
     54 N          32.6299   32.8240    3.8112 N.am      9 UNK        -0.4246 
     55 CA         33.6840   33.4756    4.5961 C.3       9 UNK         0.0261 
     56 CB         34.0394   34.8157    3.9306 C.3       9 UNK        -0.1959 
     57 C          34.9560   32.6370    4.8316 C.2       9 UNK         0.5033 
     58 O          35.7491   33.0023    5.7007 O.2       9 UNK        -0.5390 
     59 N          35.1251   31.5272    4.0963 N.am      10 UNK        -0.4215 
     60 CA         36.1555   30.5119    4.3291 C.3       10 UNK         0.0240 
     61 CB         36.0540   29.4282    3.2451 C.3       10 UNK        -0.1982 
     62 C          36.0936   29.8632    5.7265 C.2       10 UNK         0.4970 
     63 O          37.1410   29.4518    6.2279 O.2       10 UNK        -0.4916 
     64 N          34.8984   29.7893    6.3314 N.am      11 UNK        -0.4279 
     65 CA         34.6980   29.2797    7.6981 C.3       11 UNK         0.1003 
     66 C          33.4671   29.8601    8.4497 C.2       11 UNK         0.5709 
     67 N          32.5604   30.5929    7.8141 N.am      11 UNK        -0.7358 
     68 O          33.3472   29.6669    9.6573 O.2       11 UNK        -0.4999 
     69 C69        34.8351   27.7299    7.8122 C.3       12 UNK        -0.0954 
     70 S70        33.3958   26.7081    7.3328 S.3       12 UNK        -0.2268 
     71 C71        32.9346   27.3781    5.7087 C.3       12 UNK         0.0203 
     72 H72        29.5137   19.4089    1.1574 H         1 UNK         0.0888 
     73 H73        29.3615   20.9087    2.0748 H         1 UNK         0.0888 
     74 H74        27.9184   20.1075    1.4501 H         1 UNK         0.0888 
     75 H75        29.8427   22.7352    0.8749 H         1 UNK         0.3017 
     76 H76        30.0171   22.6730   -2.0266 H         1 UNK         0.0873 
     77 H77        31.0876   24.8717   -1.7882 H         1 UNK         0.0745 
     78 H78        31.8724   23.6614   -0.8217 H         1 UNK         0.0745 
     79 H79        31.2497   23.3407    1.8863 H         1 UNK         0.0705 
     80 H80        32.6695   24.3468    1.6962 H         1 UNK         0.0705 
     81 H81        33.2397   25.8509    3.4761 H         1 UNK         0.1334 
     82 H82        30.3269   27.0179    6.3927 H         1 UNK         0.1417 
     83 H83        29.2264   24.3682    3.2027 H         1 UNK         0.1562 
     84 H84        28.0446   26.4392    6.1378 H         1 UNK         0.0748 
     85 H85        28.0165   24.7076    5.9121 H         1 UNK         0.0748 
     86 H86        28.4621   27.6219    3.5529 H         1 UNK         0.0940 
     87 H87        26.8254   28.1837    3.4705 H         1 UNK         0.0940 
     88 H88        27.9567   26.1356    1.4833 H         1 UNK         0.0703 
     89 H89        25.9066   26.1149    0.6714 H         1 UNK         0.3081 
     90 H90        23.1092   28.1914    0.7977 H         1 UNK         0.0719 
     91 H91        24.1636   29.5570   -1.0059 H         1 UNK         0.0809 
     92 H92        24.7898   28.1038   -1.7706 H         1 UNK         0.0809 
     93 H93        23.0493   28.3853   -1.6872 H         1 UNK         0.0809 
     94 H94        23.8389   25.9989   -0.9440 H         1 UNK         0.2990 
     95 H95        23.4189   23.4011    1.3074 H         1 UNK         0.0690 
     96 H96        21.5386   22.5838   -0.0963 H         1 UNK         0.0788 
     97 H97        21.2679   24.2095   -0.7276 H         1 UNK         0.0788 
     98 H98        20.9826   23.8605    0.9716 H         1 UNK         0.0788 
     99 H99        23.4824   23.3691   -1.5260 H         1 UNK         0.2993 
    100 H100       25.5437   22.4837   -2.3845 H         1 UNK         0.0949 
    101 H101       26.0604   25.4954   -2.7188 H         1 UNK         0.0767 
    102 H102       26.2948   24.3012   -3.9930 H         1 UNK         0.0767 
    103 H103       24.6938   24.5842   -3.3353 H         1 UNK         0.0767 
    104 H104       27.6518   22.1353   -1.8067 H         1 UNK         0.3013 
    105 H105       28.3427   26.9287   -0.7335 H         1 UNK         0.3121 
    106 H106       28.5187   29.6142   -1.4563 H         1 UNK         0.0774 
    107 H107       29.9188   27.1775   -2.6782 H         1 UNK         0.0815 
    108 H108       28.2909   27.7348   -3.0593 H         1 UNK         0.0815 
    109 H109       29.6801   28.7219   -3.4864 H         1 UNK         0.0815 
    110 H110       31.0158   27.6910    0.1265 H         1 UNK         0.2987 
    111 H111       33.2149   29.4752   -0.4798 H         1 UNK         0.0949 
    112 H112       33.5100   27.0457    0.0864 H         1 UNK         0.0806 
    113 H113       34.4461   28.0907    1.1388 H         1 UNK         0.0806 
    114 H114       32.9490   27.3755    1.7242 H         1 UNK         0.0806 
    115 H115       30.6476   29.5524    1.8331 H         1 UNK         0.3010 
    116 H116       30.1579   30.7334    3.6789 H         1 UNK         0.0829 
    117 H117       30.9586   32.8314    1.5914 H         1 UNK         0.0813 
    118 H118       29.9458   33.1638    2.9997 H         1 UNK         0.0813 
    119 H119       29.4018   32.0393    1.7705 H         1 UNK         0.0813 
    120 H120       32.3505   33.3026    2.9674 H         1 UNK         0.3038 
    121 H121       33.2626   33.6846    5.5815 H         1 UNK         0.0769 
    122 H122       33.1691   35.4684    3.8587 H         1 UNK         0.0811 
    123 H123       34.4381   34.6722    2.9255 H         1 UNK         0.0811 
    124 H124       34.7948   35.3521    4.5069 H         1 UNK         0.0811 
    125 H125       34.4496   31.3292    3.3625 H         1 UNK         0.3204 
    126 H126       37.1262   31.0033    4.2369 H         1 UNK         0.0748 
    127 H127       35.0965   28.9085    3.2926 H         1 UNK         0.0771 
    128 H128       36.1584   29.8526    2.2463 H         1 UNK         0.0771 
    129 H129       36.8388   28.6797    3.3633 H         1 UNK         0.0771 
    130 H130       34.0821   30.1646    5.8634 H         1 UNK         0.2980 
    131 H131       35.5314   29.6911    8.2716 H         1 UNK         0.0545 
    132 H132       32.5692   30.7378    6.8082 H         1 UNK         0.3459 
    133 H133       31.7910   30.9606    8.3498 H         1 UNK         0.3459 
    134 H134       35.6959   27.3808    7.2410 H         1 UNK         0.0616 
    135 H135       35.0636   27.4737    8.8479 H         1 UNK         0.0616 
    136 H136       33.8287   27.4720    5.0908 H         1 UNK         0.0634 
    137 H137       32.5242   28.3800    5.8303 H         1 UNK         0.0634 
@<TRIPOS>BOND
     1    1    2 1    
     2    1   72 1    
     3    1   73 1    
     4    1   74 1    
     5    2    3 2    
     6    2    4 am   BACKBONE|DICT|INTERRES
     7    4    5 1    
     8    4   75 1    
     9    5    6 1    
    10    5   35 1    
    11    5   76 1    
    12    6    7 1    
    13    6   77 1    
    14    6   78 1    
    15    7    8 1    
    16    8    9 1    
    17    8   79 1    
    18    8   80 1    
    19    9   10 ar   
    20    9   14 ar   
    21   10   11 ar   
    22   10   81 1    
    23   11   12 ar   
    24   11   71 1    
    25   12   13 ar   
    26   12   82 1    
    27   13   14 ar   
    28   13   15 1    
    29   14   83 1    
    30   15   16 1    
    31   15   84 1    
    32   15   85 1    
    33   16   17 1    
    34   17   18 1    
    35   17   86 1    
    36   17   87 1    
    37   18   19 1    
    38   18   37 1    
    39   18   88 1    
    40   19   20 am   BACKBONE|DICT|INTERRES
    41   19   89 1    
    42   20   21 2    
    43   20   22 1    
    44   22   23 1    
    45   22   24 1    
    46   22   90 1    
    47   23   91 1    
    48   23   92 1    
    49   23   93 1    
    50   24   25 am   BACKBONE|DICT|INTERRES
    51   24   94 1    
    52   25   26 2    
    53   25   27 1    
    54   27   28 1    
    55   27   29 1    
    56   27   95 1    
    57   28   96 1    
    58   28   97 1    
    59   28   98 1    
    60   29   30 am   BACKBONE|DICT|INTERRES
    61   29   99 1    
    62   30   31 2    
    63   30   32 1    
    64   32   33 1    
    65   32   34 1    
    66   32  100 1    
    67   33  101 1    
    68   33  102 1    
    69   33  103 1    
    70   34   35 am   BACKBONE|DICT|INTERRES
    71   34  104 1    
    72   35   36 2    
    73   37   38 2    
    74   37   39 am   BACKBONE|DICT|INTERRES
    75   39   40 1    
    76   39  105 1    
    77   40   41 1    
    78   40   42 1    
    79   40  106 1    
    80   41  107 1    
    81   41  108 1    
    82   41  109 1    
    83   42   43 2    
    84   42   44 am   BACKBONE|DICT|INTERRES
    85   44   45 1    
    86   44  110 1    
    87   45   46 1    
    88   45   47 1    
    89   45  111 1    
    90   46  112 1    
    91   46  113 1    
    92   46  114 1    
    93   47   48 2    
    94   47   49 am   BACKBONE|DICT|INTERRES
    95   49   50 1    
    96   49  115 1    
    97   50   51 1    
    98   50   52 1    
    99   50  116 1    
   100   51  117 1    
   101   51  118 1    
   102   51  119 1    
   103   52   53 2    
   104   52   54 am   BACKBONE|DICT|INTERRES
   105   54   55 1    
   106   54  120 1    
   107   55   56 1    
   108   55   57 1    
   109   55  121 1    
   110   56  122 1    
   111   56  123 1    
   112   56  124 1    
   113   57   58 2    
   114   57   59 am   BACKBONE|DICT|INTERRES
   115   59   60 1    
   116   59  125 1    
   117   60   61 1    
   118   60   62 1    
   119   60  126 1    
   120   61  127 1    
   121   61  128 1    
   122   61  129 1    
   123   62   63 2    
   124   62   64 am   BACKBONE|DICT|INTERRES
   125   64   65 1    
   126   64  130 1    
   127   65   66 1    
   128   65   69 1    
   129   65  131 1    
   130   66   67 am   BACKBONE|DICT|INTERRES
   131   66   68 2    
   132   67  132 1    
   133   67  133 1    
   134   69   70 1    
   135   69  134 1    
   136   69  135 1    
   137   70   71 1    
   138   71  136 1    
   139   71  137 1    
@<TRIPOS>SUBSTRUCTURE
     1 UNK         1 GROUP             0       ****    0 ROOT    
