@<TRIPOS>MOLECULE
3R136
137   139    1
SMALL
USER_CHARGES


@<TRIPOS>ATOM
      1 CA         33.5179   24.9277   -1.4275 C.3       0 UNK        -0.1979 
      2 C          32.0731   25.0102   -0.9594 C.2       0 UNK         0.4864 
      3 O          31.5421   26.1091   -0.8107 O.2       0 UNK        -0.5359 
      4 N          31.4258   23.8555   -0.7530 N.am      1 UNK        -0.4318 
      5 CA         30.0558   23.6670   -0.2462 C.3       1 UNK         0.0824 
      6 C6         29.8949   22.1984    0.2444 C.3       12 UNK        -0.0944 
      7 S7         28.6542   21.9752    1.5641 S.3       12 UNK        -0.2672 
      8 C8         29.6613   21.3947    2.9676 C.3       12 UNK         0.0333 
      9 C9         30.1512   22.5479    3.8310 C.ar      12 UNK        -0.0807 
     10 C10        31.2210   23.3438    3.4130 C.ar      12 UNK        -0.0894 
     11 C11        31.6684   24.4041    4.2065 C.ar      12 UNK        -0.0804 
     12 C12        31.0513   24.6589    5.4345 C.ar      12 UNK        -0.0824 
     13 C13        29.9812   23.8684    5.8640 C.ar      12 UNK        -0.0762 
     14 C14        29.5380   22.8139    5.0591 C.ar      12 UNK        -0.0782 
     15 C15        29.3010   24.1463    7.1967 C.3       12 UNK         0.0230 
     16 S16        27.5773   24.6888    6.9750 S.3       12 UNK        -0.2608 
     17 C17        27.7791   26.4207    6.4291 C.3       12 UNK        -0.0989 
     18 CA         27.9770   26.6036    4.8993 C.3       5 UNK         0.0716 
     19 N          27.0450   25.7896    4.1138 N.am      5 UNK        -0.4135 
     20 C          27.1913   25.4964    2.8170 C.2       4 UNK         0.5031 
     21 O          28.1436   25.8792    2.1328 O.2       4 UNK        -0.5229 
     22 CA         26.0605   24.6881    2.1462 C.3       4 UNK         0.0329 
     23 CB         24.7807   24.5359    3.0017 C.3       4 UNK        -0.2001 
     24 N          25.7483   25.2496    0.8289 N.am      4 UNK        -0.4303 
     25 C          25.3555   26.5084    0.5795 C.2       3 UNK         0.5044 
     26 O          25.0552   27.3231    1.4540 O.2       3 UNK        -0.5152 
     27 CA         25.3869   26.9315   -0.8934 C.3       3 UNK         0.0319 
     28 CB         25.1371   28.4384   -1.0998 C.3       3 UNK        -0.2001 
     29 N          26.6872   26.5568   -1.4471 N.am      3 UNK        -0.4354 
     30 C          26.9077   26.1408   -2.6978 C.2       2 UNK         0.4964 
     31 O          26.0327   26.0705   -3.5616 O.2       2 UNK        -0.5047 
     32 CA         28.3474   25.7322   -3.0538 C.3       2 UNK         0.0288 
     33 CB         29.0862   26.9042   -3.7202 C.3       2 UNK        -0.2113 
     34 N          29.1453   25.2468   -1.9216 N.am      2 UNK        -0.4145 
     35 C          28.9606   24.0916   -1.2674 C.2       1 UNK         0.5006 
     36 O          27.9909   23.3606   -1.4798 O.2       1 UNK        -0.5103 
     37 C          27.9197   28.1063    4.5387 C.2       5 UNK         0.5055 
     38 O          28.8160   28.8487    4.9387 O.2       5 UNK        -0.5220 
     39 N          26.8694   28.5424    3.8260 N.am      6 UNK        -0.4450 
     40 CA         26.6051   29.9418    3.4811 C.3       6 UNK         0.0367 
     41 CB         25.0831   30.1740    3.4812 C.3       6 UNK        -0.1929 
     42 C          27.2385   30.3746    2.1449 C.2       6 UNK         0.5070 
     43 O          26.9270   31.4664    1.6675 O.2       6 UNK        -0.5237 
     44 N          28.1053   29.5353    1.5578 N.am      7 UNK        -0.4739 
     45 CA         28.8263   29.8015    0.3072 C.3       7 UNK         0.0276 
     46 CB         29.6526   28.5621   -0.0647 C.3       7 UNK        -0.1927 
     47 C          29.7311   31.0466    0.3660 C.2       7 UNK         0.5013 
     48 O          29.7796   31.8082   -0.6005 O.2       7 UNK        -0.5193 
     49 N          30.4052   31.2281    1.5058 N.am      8 UNK        -0.4253 
     50 CA         31.2819   32.3375    1.8736 C.3       8 UNK         0.0242 
     51 CB         32.5027   32.4255    0.9324 C.3       8 UNK        -0.2000 
     52 C          31.7174   32.1019    3.3261 C.2       8 UNK         0.4948 
     53 O          31.4663   31.0182    3.8631 O.2       8 UNK        -0.5275 
     54 N          32.3797   33.0955    3.9352 N.am      9 UNK        -0.4246 
     55 CA         32.9509   33.0224    5.2859 C.3       9 UNK         0.0261 
     56 CB         33.5888   34.3757    5.6440 C.3       9 UNK        -0.1959 
     57 C          33.9737   31.8769    5.3955 C.2       9 UNK         0.5033 
     58 O          35.0513   31.9705    4.8033 O.2       9 UNK        -0.5390 
     59 N          33.5715   30.7874    6.0686 N.am      10 UNK        -0.4215 
     60 CA         34.2640   29.4913    6.1545 C.3       10 UNK         0.0240 
     61 CB         35.5389   29.6157    7.0161 C.3       10 UNK        -0.1982 
     62 C          34.5387   28.8480    4.7752 C.2       10 UNK         0.4970 
     63 O          35.5177   28.1142    4.6288 O.2       10 UNK        -0.4916 
     64 N          33.6848   29.1594    3.7896 N.am      11 UNK        -0.4279 
     65 CA         33.8374   28.8419    2.3607 C.3       11 UNK         0.1003 
     66 C          35.0592   29.5288    1.6735 C.2       11 UNK         0.5709 
     67 N          35.6520   30.5705    2.2478 N.am      11 UNK        -0.7358 
     68 O          35.4592   29.1396    0.5790 O.2       11 UNK        -0.4999 
     69 C69        33.7409   27.3236    2.0470 C.3       12 UNK        -0.0954 
     70 S70        32.1793   26.5883    2.6313 S.3       12 UNK        -0.2268 
     71 C71        32.8080   25.2826    3.7232 C.3       12 UNK         0.0203 
     72 H72        33.8283   23.9004   -1.6171 H         1 UNK         0.0888 
     73 H73        33.6465   25.4961   -2.3482 H         1 UNK         0.0888 
     74 H74        34.1804   25.3485   -0.6720 H         1 UNK         0.0888 
     75 H75        31.9200   22.9973   -0.9509 H         1 UNK         0.3017 
     76 H76        29.9469   24.3295    0.6163 H         1 UNK         0.0873 
     77 H77        29.6489   21.5300   -0.5830 H         1 UNK         0.0745 
     78 H78        30.8480   21.8273    0.6226 H         1 UNK         0.0745 
     79 H79        30.5055   20.7984    2.6193 H         1 UNK         0.0705 
     80 H80        29.0495   20.7167    3.5647 H         1 UNK         0.0705 
     81 H81        31.6971   23.1508    2.4619 H         1 UNK         0.1334 
     82 H82        31.3946   25.4822    6.0460 H         1 UNK         0.1417 
     83 H83        28.7073   22.2055    5.3904 H         1 UNK         0.1562 
     84 H84        29.8498   24.8903    7.7762 H         1 UNK         0.0748 
     85 H85        29.3063   23.2321    7.7920 H         1 UNK         0.0748 
     86 H86        28.6124   26.8693    6.9737 H         1 UNK         0.0940 
     87 H87        26.8878   26.9577    6.7608 H         1 UNK         0.0940 
     88 H88        28.9843   26.2711    4.6457 H         1 UNK         0.0703 
     89 H89        26.2431   25.4295    4.6097 H         1 UNK         0.3081 
     90 H90        26.4540   23.6892    1.9686 H         1 UNK         0.0719 
     91 H91        24.9785   23.9742    3.9155 H         1 UNK         0.0809 
     92 H92        24.0129   23.9864    2.4570 H         1 UNK         0.0809 
     93 H93        24.3535   25.4984    3.2855 H         1 UNK         0.0809 
     94 H94        26.0050   24.6718    0.0397 H         1 UNK         0.2990 
     95 H95        24.5950   26.3740   -1.3981 H         1 UNK         0.0690 
     96 H96        25.1730   28.7071   -2.1555 H         1 UNK         0.0788 
     97 H97        25.8743   29.0439   -0.5728 H         1 UNK         0.0788 
     98 H98        24.1536   28.7247   -0.7251 H         1 UNK         0.0788 
     99 H99        27.4595   26.5527   -0.7949 H         1 UNK         0.2993 
    100 H100       28.2781   24.9178   -3.7783 H         1 UNK         0.0949 
    101 H101       28.5479   27.2544   -4.6022 H         1 UNK         0.0767 
    102 H102       29.1896   27.7531   -3.0438 H         1 UNK         0.0767 
    103 H103       30.0844   26.6110   -4.0462 H         1 UNK         0.0767 
    104 H104       29.9724   25.7849   -1.6652 H         1 UNK         0.3013 
    105 H105       26.2051   27.8676    3.4677 H         1 UNK         0.3121 
    106 H106       27.0353   30.5847    4.2521 H         1 UNK         0.0774 
    107 H107       24.8467   31.2281    3.3303 H         1 UNK         0.0815 
    108 H108       24.5885   29.6149    2.6867 H         1 UNK         0.0815 
    109 H109       24.6352   29.8784    4.4299 H         1 UNK         0.0815 
    110 H110       28.2899   28.6511    2.0116 H         1 UNK         0.2987 
    111 H111       28.0854   29.9724   -0.4760 H         1 UNK         0.0949 
    112 H112       29.0253   27.6793   -0.1745 H         1 UNK         0.0806 
    113 H113       30.1793   28.7090   -1.0083 H         1 UNK         0.0806 
    114 H114       30.4059   28.3351    0.6911 H         1 UNK         0.0806 
    115 H115       30.2868   30.5575    2.2580 H         1 UNK         0.3010 
    116 H116       30.7095   33.2659    1.8307 H         1 UNK         0.0829 
    117 H117       33.2262   33.1647    1.2778 H         1 UNK         0.0813 
    118 H118       33.0230   31.4727    0.8549 H         1 UNK         0.0813 
    119 H119       32.2103   32.7223   -0.0744 H         1 UNK         0.0813 
    120 H120       32.5647   33.9426    3.4176 H         1 UNK         0.3038 
    121 H121       32.1337   32.8380    5.9865 H         1 UNK         0.0769 
    122 H122       34.3881   34.6431    4.9514 H         1 UNK         0.0811 
    123 H123       34.0217   34.3489    6.6449 H         1 UNK         0.0811 
    124 H124       32.8515   35.1786    5.6325 H         1 UNK         0.0811 
    125 H125       32.6402   30.8027    6.4630 H         1 UNK         0.3204 
    126 H126       33.5814   28.8132    6.6689 H         1 UNK         0.0748 
    127 H127       35.9859   28.6380    7.2005 H         1 UNK         0.0771 
    128 H128       36.2956   30.2328    6.5304 H         1 UNK         0.0771 
    129 H129       35.3194   30.0573    7.9881 H         1 UNK         0.0771 
    130 H130       32.8985   29.7668    4.0045 H         1 UNK         0.2980 
    131 H131       32.9737   29.3067    1.8851 H         1 UNK         0.0545 
    132 H132       35.3524   30.9243    3.1509 H         1 UNK         0.3459 
    133 H133       36.4312   31.0043    1.7799 H         1 UNK         0.3459 
    134 H134       34.5939   26.7884    2.4661 H         1 UNK         0.0616 
    135 H135       33.7784   27.1567    0.9696 H         1 UNK         0.0616 
    136 H136       33.5391   24.6772    3.1852 H         1 UNK         0.0634 
    137 H137       33.3331   25.7355    4.5657 H         1 UNK         0.0634 
@<TRIPOS>BOND
     1    1    2 1    
     2    1   72 1    
     3    1   73 1    
     4    1   74 1    
     5    2    3 2    
     6    2    4 am   BACKBONE|DICT|INTERRES
     7    4    5 1    
     8    4   75 1    
     9    5    6 1    
    10    5   35 1    
    11    5   76 1    
    12    6    7 1    
    13    6   77 1    
    14    6   78 1    
    15    7    8 1    
    16    8    9 1    
    17    8   79 1    
    18    8   80 1    
    19    9   10 ar   
    20    9   14 ar   
    21   10   11 ar   
    22   10   81 1    
    23   11   12 ar   
    24   11   71 1    
    25   12   13 ar   
    26   12   82 1    
    27   13   14 ar   
    28   13   15 1    
    29   14   83 1    
    30   15   16 1    
    31   15   84 1    
    32   15   85 1    
    33   16   17 1    
    34   17   18 1    
    35   17   86 1    
    36   17   87 1    
    37   18   19 1    
    38   18   37 1    
    39   18   88 1    
    40   19   20 am   BACKBONE|DICT|INTERRES
    41   19   89 1    
    42   20   21 2    
    43   20   22 1    
    44   22   23 1    
    45   22   24 1    
    46   22   90 1    
    47   23   91 1    
    48   23   92 1    
    49   23   93 1    
    50   24   25 am   BACKBONE|DICT|INTERRES
    51   24   94 1    
    52   25   26 2    
    53   25   27 1    
    54   27   28 1    
    55   27   29 1    
    56   27   95 1    
    57   28   96 1    
    58   28   97 1    
    59   28   98 1    
    60   29   30 am   BACKBONE|DICT|INTERRES
    61   29   99 1    
    62   30   31 2    
    63   30   32 1    
    64   32   33 1    
    65   32   34 1    
    66   32  100 1    
    67   33  101 1    
    68   33  102 1    
    69   33  103 1    
    70   34   35 am   BACKBONE|DICT|INTERRES
    71   34  104 1    
    72   35   36 2    
    73   37   38 2    
    74   37   39 am   BACKBONE|DICT|INTERRES
    75   39   40 1    
    76   39  105 1    
    77   40   41 1    
    78   40   42 1    
    79   40  106 1    
    80   41  107 1    
    81   41  108 1    
    82   41  109 1    
    83   42   43 2    
    84   42   44 am   BACKBONE|DICT|INTERRES
    85   44   45 1    
    86   44  110 1    
    87   45   46 1    
    88   45   47 1    
    89   45  111 1    
    90   46  112 1    
    91   46  113 1    
    92   46  114 1    
    93   47   48 2    
    94   47   49 am   BACKBONE|DICT|INTERRES
    95   49   50 1    
    96   49  115 1    
    97   50   51 1    
    98   50   52 1    
    99   50  116 1    
   100   51  117 1    
   101   51  118 1    
   102   51  119 1    
   103   52   53 2    
   104   52   54 am   BACKBONE|DICT|INTERRES
   105   54   55 1    
   106   54  120 1    
   107   55   56 1    
   108   55   57 1    
   109   55  121 1    
   110   56  122 1    
   111   56  123 1    
   112   56  124 1    
   113   57   58 2    
   114   57   59 am   BACKBONE|DICT|INTERRES
   115   59   60 1    
   116   59  125 1    
   117   60   61 1    
   118   60   62 1    
   119   60  126 1    
   120   61  127 1    
   121   61  128 1    
   122   61  129 1    
   123   62   63 2    
   124   62   64 am   BACKBONE|DICT|INTERRES
   125   64   65 1    
   126   64  130 1    
   127   65   66 1    
   128   65   69 1    
   129   65  131 1    
   130   66   67 am   BACKBONE|DICT|INTERRES
   131   66   68 2    
   132   67  132 1    
   133   67  133 1    
   134   69   70 1    
   135   69  134 1    
   136   69  135 1    
   137   70   71 1    
   138   71  136 1    
   139   71  137 1    
@<TRIPOS>SUBSTRUCTURE
     1 UNK         1 GROUP             0       ****    0 ROOT    
