@<TRIPOS>MOLECULE
3R136
137   139    1
SMALL
USER_CHARGES


@<TRIPOS>ATOM
      1 CA         27.0286   19.3364    3.3770 C.3       0 UNK        -0.1979 
      2 C          25.7298   19.9231    2.8287 C.2       0 UNK         0.4864 
      3 O          24.6627   19.3948    3.1374 O.2       0 UNK        -0.5359 
      4 N          25.7429   20.9896    2.0132 N.am      1 UNK        -0.4318 
      5 CA         26.8830   21.7952    1.5541 C.3       1 UNK         0.0824 
      6 C6         27.9061   20.9984    0.6929 C.3       12 UNK        -0.0944 
      7 S7         28.7451   22.0569   -0.5373 S.3       12 UNK        -0.2672 
      8 C8         30.4667   22.0307    0.0551 C.3       12 UNK         0.0333 
      9 C9         31.1492   23.3729   -0.1584 C.ar      12 UNK        -0.0807 
     10 C10        31.0166   24.3797    0.8022 C.ar      12 UNK        -0.0894 
     11 C11        31.6720   25.6026    0.6437 C.ar      12 UNK        -0.0804 
     12 C12        32.4704   25.8153   -0.4830 C.ar      12 UNK        -0.0824 
     13 C13        32.5909   24.8272   -1.4668 C.ar      12 UNK        -0.0762 
     14 C14        31.9266   23.6066   -1.2978 C.ar      12 UNK        -0.0782 
     15 C15        33.4688   25.0555   -2.6919 C.3       12 UNK         0.0230 
     16 S16        32.6054   25.9707   -4.0138 S.3       12 UNK        -0.2608 
     17 C17        32.7558   27.6986   -3.4340 C.3       12 UNK        -0.0989 
     18 CA         31.4023   28.4304   -3.2200 C.3       5 UNK         0.0716 
     19 N          30.3691   27.5767   -2.6135 N.am      5 UNK        -0.4135 
     20 C          29.0716   27.8959   -2.4896 C.2       4 UNK         0.5031 
     21 O          28.5863   28.9667   -2.8550 O.2       4 UNK        -0.5229 
     22 CA         28.1648   26.8579   -1.8246 C.3       4 UNK         0.0329 
     23 CB         28.6102   25.4052   -2.1040 C.3       4 UNK        -0.2001 
     24 N          28.1015   27.1516   -0.3920 N.am      4 UNK        -0.4303 
     25 C          27.2724   26.5690    0.4785 C.2       3 UNK         0.5044 
     26 O          26.4605   25.6860    0.1844 O.2       3 UNK        -0.5152 
     27 CA         27.3267   27.0777    1.9235 C.3       3 UNK         0.0319 
     28 CB         26.3342   28.2342    2.1231 C.3       3 UNK        -0.2001 
     29 N          26.9484   25.9664    2.7859 N.am      3 UNK        -0.4354 
     30 C          27.5774   25.5651    3.8954 C.2       2 UNK         0.4964 
     31 O          28.5197   26.1618    4.4133 O.2       2 UNK        -0.5047 
     32 CA         27.0725   24.2506    4.5178 C.3       2 UNK         0.0288 
     33 CB         25.9082   24.5208    5.4848 C.3       2 UNK        -0.2113 
     34 N          26.6506   23.2866    3.4940 N.am      2 UNK        -0.4145 
     35 C          27.5061   22.6267    2.6984 C.2       1 UNK         0.5006 
     36 O          28.7257   22.6454    2.8647 O.2       1 UNK        -0.5103 
     37 C          31.6318   29.7314   -2.4190 C.2       5 UNK         0.5055 
     38 O          32.0177   30.7494   -2.9953 O.2       5 UNK        -0.5220 
     39 N          31.3806   29.6589   -1.1083 N.am      6 UNK        -0.4450 
     40 CA         31.3265   30.7623   -0.1629 C.3       6 UNK         0.0367 
     41 CB         32.6199   30.7791    0.6714 C.3       6 UNK        -0.1929 
     42 C          30.0998   30.5354    0.7303 C.2       6 UNK         0.5070 
     43 O          29.5714   29.4175    0.7763 O.2       6 UNK        -0.5237 
     44 N          29.6858   31.5933    1.4367 N.am      7 UNK        -0.4739 
     45 CA         28.6655   31.5418    2.4863 C.3       7 UNK         0.0276 
     46 CB         28.2536   32.9770    2.8510 C.3       7 UNK        -0.1927 
     47 C          29.1994   30.8130    3.7289 C.2       7 UNK         0.5013 
     48 O          30.4063   30.8474    3.9740 O.2       7 UNK        -0.5193 
     49 N          28.3008   30.2188    4.5245 N.am      8 UNK        -0.4253 
     50 CA         28.6291   29.3942    5.6976 C.3       8 UNK         0.0242 
     51 CB         27.3312   28.8407    6.3091 C.3       8 UNK        -0.2000 
     52 C          29.4782   30.0922    6.7784 C.2       8 UNK         0.4948 
     53 O          30.2332   29.4173    7.4779 O.2       8 UNK        -0.5275 
     54 N          29.3596   31.4230    6.8828 N.am      9 UNK        -0.4246 
     55 CA         30.1714   32.2622    7.7675 C.3       9 UNK         0.0261 
     56 CB         29.4592   33.6101    7.9694 C.3       9 UNK        -0.1959 
     57 C          31.6080   32.4893    7.2556 C.2       9 UNK         0.5033 
     58 O          32.4839   32.7953    8.0662 O.2       9 UNK        -0.5390 
     59 N          31.8248   32.3644    5.9390 N.am      10 UNK        -0.4215 
     60 CA         33.1153   32.5647    5.2753 C.3       10 UNK         0.0240 
     61 CB         32.8927   33.3717    3.9853 C.3       10 UNK        -0.1982 
     62 C          33.8175   31.2331    4.9637 C.2       10 UNK         0.4970 
     63 O          35.0484   31.1935    4.9703 O.2       10 UNK        -0.4916 
     64 N          33.0339   30.1815    4.6897 N.am      11 UNK        -0.4279 
     65 CA         33.4804   28.8078    4.4239 C.3       11 UNK         0.1003 
     66 C          34.3515   28.2098    5.5663 C.2       11 UNK         0.5709 
     67 N          35.4012   27.4723    5.2295 N.am      11 UNK        -0.7358 
     68 O          34.0644   28.3812    6.7497 O.2       11 UNK        -0.4999 
     69 C69        32.2627   27.8983    4.1067 C.3       12 UNK        -0.0954 
     70 S70        32.7054   26.4816    3.0475 S.3       12 UNK        -0.2268 
     71 C71        31.5159   26.6905    1.6920 C.3       12 UNK         0.0203 
     72 H72        26.8141   18.6409    4.1881 H         1 UNK         0.0888 
     73 H73        27.5526   18.7814    2.6000 H         1 UNK         0.0888 
     74 H74        27.6939   20.0985    3.7771 H         1 UNK         0.0888 
     75 H75        24.8484   21.3117    1.6698 H         1 UNK         0.3017 
     76 H76        26.4273   22.5366    0.8946 H         1 UNK         0.0873 
     77 H77        28.6347   20.4711    1.3096 H         1 UNK         0.0745 
     78 H78        27.3865   20.2237    0.1269 H         1 UNK         0.0745 
     79 H79        31.0090   21.2376   -0.4618 H         1 UNK         0.0705 
     80 H80        30.5052   21.7801    1.1155 H         1 UNK         0.0705 
     81 H81        30.4096   24.2086    1.6806 H         1 UNK         0.1334 
     82 H82        33.0016   26.7504   -0.5824 H         1 UNK         0.1417 
     83 H83        32.0243   22.8321   -2.0467 H         1 UNK         0.1562 
     84 H84        33.7924   24.0954   -3.0972 H         1 UNK         0.0748 
     85 H85        34.3839   25.5785   -2.4099 H         1 UNK         0.0748 
     86 H86        33.3431   28.2425   -4.1765 H         1 UNK         0.0940 
     87 H87        33.3648   27.7213   -2.5304 H         1 UNK         0.0940 
     88 H88        31.0245   28.7223   -4.2023 H         1 UNK         0.0703 
     89 H89        30.6738   26.6587   -2.3209 H         1 UNK         0.3081 
     90 H90        27.1658   26.9930   -2.2441 H         1 UNK         0.0719 
     91 H91        28.8137   25.2462   -3.1639 H         1 UNK         0.0809 
     92 H92        27.8351   24.6919   -1.8257 H         1 UNK         0.0809 
     93 H93        29.5080   25.1426   -1.5493 H         1 UNK         0.0809 
     94 H94        28.6751   27.9272   -0.0646 H         1 UNK         0.2990 
     95 H95        28.3372   27.4183    2.1542 H         1 UNK         0.0690 
     96 H96        26.3416   28.5890    3.1523 H         1 UNK         0.0788 
     97 H97        25.3132   27.9345    1.8828 H         1 UNK         0.0788 
     98 H98        26.5855   29.0767    1.4786 H         1 UNK         0.0788 
     99 H99        26.2312   25.3727    2.3913 H         1 UNK         0.2993 
    100 H100       27.8970   23.8161    5.0880 H         1 UNK         0.0949 
    101 H101       25.0454   24.9492    4.9730 H         1 UNK         0.0767 
    102 H102       25.5850   23.6056    5.9814 H         1 UNK         0.0767 
    103 H103       26.2063   25.2237    6.2643 H         1 UNK         0.0767 
    104 H104       25.6579   23.1832    3.3388 H         1 UNK         0.3013 
    105 H105       30.9812   28.8038   -0.7469 H         1 UNK         0.3121 
    106 H106       31.2075   31.7098   -0.6929 H         1 UNK         0.0774 
    107 H107       32.7264   29.8778    1.2762 H         1 UNK         0.0815 
    108 H108       32.6359   31.6293    1.3525 H         1 UNK         0.0815 
    109 H109       33.5008   30.8607    0.0346 H         1 UNK         0.0815 
    110 H110       30.1966   32.4599    1.3530 H         1 UNK         0.2987 
    111 H111       27.7964   31.0053    2.1026 H         1 UNK         0.0949 
    112 H112       29.0918   33.5498    3.2509 H         1 UNK         0.0806 
    113 H113       27.8674   33.5110    1.9825 H         1 UNK         0.0806 
    114 H114       27.4661   32.9814    3.6058 H         1 UNK         0.0806 
    115 H115       27.3231   30.2791    4.2811 H         1 UNK         0.3010 
    116 H116       29.2210   28.5514    5.3351 H         1 UNK         0.0829 
    117 H117       26.7829   28.2293    5.5924 H         1 UNK         0.0813 
    118 H118       27.5465   28.2047    7.1690 H         1 UNK         0.0813 
    119 H119       26.6708   29.6390    6.6496 H         1 UNK         0.0813 
    120 H120       28.6992   31.8937    6.2816 H         1 UNK         0.3038 
    121 H121       30.2451   31.7685    8.7391 H         1 UNK         0.0769 
    122 H122       29.3469   34.1536    7.0304 H         1 UNK         0.0811 
    123 H123       30.0221   34.2502    8.6504 H         1 UNK         0.0811 
    124 H124       28.4675   33.4748    8.4016 H         1 UNK         0.0811 
    125 H125       31.0690   32.0339    5.3473 H         1 UNK         0.3204 
    126 H126       33.7819   33.1421    5.9196 H         1 UNK         0.0748 
    127 H127       32.5045   34.3661    4.2062 H         1 UNK         0.0771 
    128 H128       33.8264   33.5028    3.4365 H         1 UNK         0.0771 
    129 H129       32.1844   32.8801    3.3183 H         1 UNK         0.0771 
    130 H130       32.0317   30.3354    4.6271 H         1 UNK         0.2980 
    131 H131       34.1005   28.8783    3.5281 H         1 UNK         0.0545 
    132 H132       35.6255   27.3014    4.2617 H         1 UNK         0.3459 
    133 H133       35.9695   27.0665    5.9560 H         1 UNK         0.3459 
    134 H134       31.7855   27.5328    5.0183 H         1 UNK         0.0616 
    135 H135       31.4930   28.4715    3.5883 H         1 UNK         0.0616 
    136 H136       30.5055   26.6690    2.1005 H         1 UNK         0.0634 
    137 H137       31.6511   27.6732    1.2405 H         1 UNK         0.0634 
@<TRIPOS>BOND
     1    1    2 1    
     2    1   72 1    
     3    1   73 1    
     4    1   74 1    
     5    2    3 2    
     6    2    4 am   BACKBONE|DICT|INTERRES
     7    4    5 1    
     8    4   75 1    
     9    5    6 1    
    10    5   35 1    
    11    5   76 1    
    12    6    7 1    
    13    6   77 1    
    14    6   78 1    
    15    7    8 1    
    16    8    9 1    
    17    8   79 1    
    18    8   80 1    
    19    9   10 ar   
    20    9   14 ar   
    21   10   11 ar   
    22   10   81 1    
    23   11   12 ar   
    24   11   71 1    
    25   12   13 ar   
    26   12   82 1    
    27   13   14 ar   
    28   13   15 1    
    29   14   83 1    
    30   15   16 1    
    31   15   84 1    
    32   15   85 1    
    33   16   17 1    
    34   17   18 1    
    35   17   86 1    
    36   17   87 1    
    37   18   19 1    
    38   18   37 1    
    39   18   88 1    
    40   19   20 am   BACKBONE|DICT|INTERRES
    41   19   89 1    
    42   20   21 2    
    43   20   22 1    
    44   22   23 1    
    45   22   24 1    
    46   22   90 1    
    47   23   91 1    
    48   23   92 1    
    49   23   93 1    
    50   24   25 am   BACKBONE|DICT|INTERRES
    51   24   94 1    
    52   25   26 2    
    53   25   27 1    
    54   27   28 1    
    55   27   29 1    
    56   27   95 1    
    57   28   96 1    
    58   28   97 1    
    59   28   98 1    
    60   29   30 am   BACKBONE|DICT|INTERRES
    61   29   99 1    
    62   30   31 2    
    63   30   32 1    
    64   32   33 1    
    65   32   34 1    
    66   32  100 1    
    67   33  101 1    
    68   33  102 1    
    69   33  103 1    
    70   34   35 am   BACKBONE|DICT|INTERRES
    71   34  104 1    
    72   35   36 2    
    73   37   38 2    
    74   37   39 am   BACKBONE|DICT|INTERRES
    75   39   40 1    
    76   39  105 1    
    77   40   41 1    
    78   40   42 1    
    79   40  106 1    
    80   41  107 1    
    81   41  108 1    
    82   41  109 1    
    83   42   43 2    
    84   42   44 am   BACKBONE|DICT|INTERRES
    85   44   45 1    
    86   44  110 1    
    87   45   46 1    
    88   45   47 1    
    89   45  111 1    
    90   46  112 1    
    91   46  113 1    
    92   46  114 1    
    93   47   48 2    
    94   47   49 am   BACKBONE|DICT|INTERRES
    95   49   50 1    
    96   49  115 1    
    97   50   51 1    
    98   50   52 1    
    99   50  116 1    
   100   51  117 1    
   101   51  118 1    
   102   51  119 1    
   103   52   53 2    
   104   52   54 am   BACKBONE|DICT|INTERRES
   105   54   55 1    
   106   54  120 1    
   107   55   56 1    
   108   55   57 1    
   109   55  121 1    
   110   56  122 1    
   111   56  123 1    
   112   56  124 1    
   113   57   58 2    
   114   57   59 am   BACKBONE|DICT|INTERRES
   115   59   60 1    
   116   59  125 1    
   117   60   61 1    
   118   60   62 1    
   119   60  126 1    
   120   61  127 1    
   121   61  128 1    
   122   61  129 1    
   123   62   63 2    
   124   62   64 am   BACKBONE|DICT|INTERRES
   125   64   65 1    
   126   64  130 1    
   127   65   66 1    
   128   65   69 1    
   129   65  131 1    
   130   66   67 am   BACKBONE|DICT|INTERRES
   131   66   68 2    
   132   67  132 1    
   133   67  133 1    
   134   69   70 1    
   135   69  134 1    
   136   69  135 1    
   137   70   71 1    
   138   71  136 1    
   139   71  137 1    
@<TRIPOS>SUBSTRUCTURE
     1 UNK         1 GROUP             0       ****    0 ROOT    
