@<TRIPOS>MOLECULE
3R136
137   139    1
SMALL
USER_CHARGES


@<TRIPOS>ATOM
      1 CA         33.6754   20.6127    1.6642 C.3       0 UNK        -0.1979 
      2 C          32.6072   21.0013    0.6525 C.2       0 UNK         0.4864 
      3 O          32.2504   20.1899   -0.2036 O.2       0 UNK        -0.5359 
      4 N          32.1025   22.2381    0.7386 N.am      1 UNK        -0.4318 
      5 CA         31.0175   22.7667   -0.0925 C.3       1 UNK         0.0824 
      6 C6         30.9818   24.3156   -0.0654 C.3       12 UNK        -0.0944 
      7 S7         30.9273   25.0391    1.6117 S.3       12 UNK        -0.2672 
      8 C8         29.2198   25.6740    1.6349 C.3       12 UNK         0.0333 
      9 C9         28.8409   26.4499    2.8939 C.ar      12 UNK        -0.0807 
     10 C10        29.7791   27.1863    3.6289 C.ar      12 UNK        -0.0894 
     11 C11        29.3849   27.9411    4.7369 C.ar      12 UNK        -0.0804 
     12 C12        28.0326   28.0008    5.0826 C.ar      12 UNK        -0.0824 
     13 C13        27.0813   27.2868    4.3484 C.ar      12 UNK        -0.0762 
     14 C14        27.4981   26.4844    3.2808 C.ar      12 UNK        -0.0782 
     15 C15        25.6017   27.4131    4.6884 C.3       12 UNK         0.0230 
     16 S16        24.5968   27.9465    3.2599 S.3       12 UNK        -0.2608 
     17 C17        25.3900   29.5225    2.7661 C.3       12 UNK        -0.0989 
     18 CA         26.4226   29.3533    1.6127 C.3       5 UNK         0.0716 
     19 N          25.9258   28.5734    0.4716 N.am      5 UNK        -0.4135 
     20 C          24.8938   28.8646   -0.3273 C.2       4 UNK         0.5031 
     21 O          24.2491   29.9116   -0.2662 O.2       4 UNK        -0.5229 
     22 CA         24.5103   27.8055   -1.3763 C.3       4 UNK         0.0329 
     23 CB         25.3790   27.9413   -2.6428 C.3       4 UNK        -0.2001 
     24 N          24.4920   26.4210   -0.8728 N.am      4 UNK        -0.4303 
     25 C          25.5109   25.6453   -0.4714 C.2       3 UNK         0.5044 
     26 O          26.6859   26.0175   -0.4505 O.2       3 UNK        -0.5152 
     27 CA         25.1659   24.2260    0.0100 C.3       3 UNK         0.0319 
     28 CB         23.8004   23.7133   -0.5113 C.3       3 UNK        -0.2001 
     29 N          26.2436   23.3147   -0.3791 N.am      3 UNK        -0.4354 
     30 C          26.4208   22.0761    0.0980 C.2       2 UNK         0.4964 
     31 O          25.7394   21.5817    0.9971 O.2       2 UNK        -0.5047 
     32 CA         27.5194   21.2266   -0.5603 C.3       2 UNK         0.0288 
     33 CB         27.0525   20.7066   -1.9309 C.3       2 UNK        -0.2113 
     34 N          28.7946   21.9304   -0.7136 N.am      2 UNK        -0.4145 
     35 C          29.6604   22.1334    0.2891 C.2       1 UNK         0.5006 
     36 O          29.4295   21.8284    1.4628 O.2       1 UNK        -0.5103 
     37 C          27.1124   30.6752    1.2106 C.2       5 UNK         0.5055 
     38 O          27.3710   31.5147    2.0744 O.2       5 UNK        -0.5220 
     39 N          27.4544   30.8185   -0.0786 N.am      6 UNK        -0.4450 
     40 CA         28.2863   31.9020   -0.6064 C.3       6 UNK         0.0367 
     41 CB         28.0696   32.0155   -2.1238 C.3       6 UNK        -0.1929 
     42 C          29.7771   31.6904   -0.2892 C.2       6 UNK         0.5070 
     43 O          30.5169   32.6667   -0.1647 O.2       6 UNK        -0.5237 
     44 N          30.1935   30.4250   -0.1335 N.am      7 UNK        -0.4739 
     45 CA         31.5534   29.9954    0.2060 C.3       7 UNK         0.0276 
     46 CB         31.7359   28.5333   -0.2446 C.3       7 UNK        -0.1927 
     47 C          31.8737   30.1887    1.7019 C.2       7 UNK         0.5013 
     48 O          32.3386   29.2558    2.3580 O.2       7 UNK        -0.5193 
     49 N          31.6316   31.4022    2.2174 N.am      8 UNK        -0.4253 
     50 CA         31.7830   31.7927    3.6244 C.3       8 UNK         0.0242 
     51 CB         31.4059   33.2734    3.7847 C.3       8 UNK        -0.2000 
     52 C          33.1792   31.5231    4.2122 C.2       8 UNK         0.4948 
     53 O          33.2840   31.1891    5.3922 O.2       8 UNK        -0.5275 
     54 N          34.2156   31.6154    3.3664 N.am      9 UNK        -0.4246 
     55 CA         35.6086   31.2998    3.6893 C.3       9 UNK         0.0261 
     56 CB         36.4965   31.6340    2.4800 C.3       9 UNK        -0.1959 
     57 C          35.8408   29.8449    4.1389 C.2       9 UNK         0.5033 
     58 O          36.7683   29.6080    4.9142 O.2       9 UNK        -0.5390 
     59 N          34.9923   28.9023    3.6953 N.am      10 UNK        -0.4215 
     60 CA         35.0409   27.4966    4.1148 C.3       10 UNK         0.0240 
     61 CB         34.1522   26.6478    3.1914 C.3       10 UNK        -0.1982 
     62 C          34.6461   27.2889    5.5894 C.2       10 UNK         0.4970 
     63 O          35.0340   26.2757    6.1723 O.2       10 UNK        -0.4916 
     64 N          33.9111   28.2485    6.1659 N.am      11 UNK        -0.4279 
     65 CA         33.5602   28.3027    7.5911 C.3       11 UNK         0.1003 
     66 C          34.6058   29.0746    8.4501 C.2       11 UNK         0.5709 
     67 N          35.7047   29.5742    7.8931 N.am      11 UNK        -0.7358 
     68 O          34.4292   29.2060    9.6591 O.2       11 UNK        -0.4999 
     69 C69        32.1221   28.8487    7.7966 C.3       12 UNK        -0.0954 
     70 S70        30.8600   27.7626    7.0522 S.3       12 UNK        -0.2268 
     71 C71        30.4177   28.6970    5.5573 C.3       12 UNK         0.0203 
     72 H72        33.9033   21.4289    2.3497 H         1 UNK         0.0888 
     73 H73        33.3410   19.7590    2.2531 H         1 UNK         0.0888 
     74 H74        34.5954   20.3344    1.1510 H         1 UNK         0.0888 
     75 H75        32.4010   22.8523    1.4832 H         1 UNK         0.3017 
     76 H76        31.2326   22.4691   -1.1215 H         1 UNK         0.0873 
     77 H77        31.8814   24.7001   -0.5487 H         1 UNK         0.0745 
     78 H78        30.1526   24.6935   -0.6666 H         1 UNK         0.0745 
     79 H79        29.0794   26.3348    0.7789 H         1 UNK         0.0705 
     80 H80        28.5391   24.8321    1.4968 H         1 UNK         0.0705 
     81 H81        30.8196   27.1831    3.3394 H         1 UNK         0.1334 
     82 H82        27.7242   28.6077    5.9230 H         1 UNK         0.1417 
     83 H83        26.7608   25.9369    2.7092 H         1 UNK         0.1562 
     84 H84        25.4474   28.1179    5.5070 H         1 UNK         0.0748 
     85 H85        25.2344   26.4478    5.0389 H         1 UNK         0.0748 
     86 H86        25.8630   29.9683    3.6432 H         1 UNK         0.0940 
     87 H87        24.6024   30.2158    2.4664 H         1 UNK         0.0940 
     88 H88        27.2488   28.7662    2.0052 H         1 UNK         0.0703 
     89 H89        26.3860   27.6812    0.3044 H         1 UNK         0.3081 
     90 H90        23.4807   28.0210   -1.6669 H         1 UNK         0.0719 
     91 H91        25.0575   27.2460   -3.4182 H         1 UNK         0.0809 
     92 H92        26.4341   27.7531   -2.4427 H         1 UNK         0.0809 
     93 H93        25.3037   28.9466   -3.0596 H         1 UNK         0.0809 
     94 H94        23.5692   26.0128   -0.8147 H         1 UNK         0.2990 
     95 H95        25.1314   24.2671    1.1005 H         1 UNK         0.0690 
     96 H96        23.5931   22.6991   -0.1708 H         1 UNK         0.0788 
     97 H97        23.7627   23.7056   -1.6016 H         1 UNK         0.0788 
     98 H98        22.9750   24.3275   -0.1499 H         1 UNK         0.0788 
     99 H99        26.8854   23.6805   -1.0698 H         1 UNK         0.2993 
    100 H100       27.6856   20.3583    0.0821 H         1 UNK         0.0949 
    101 H101       26.1088   20.1661   -1.8417 H         1 UNK         0.0767 
    102 H102       26.8968   21.5173   -2.6438 H         1 UNK         0.0767 
    103 H103       27.7787   20.0163   -2.3608 H         1 UNK         0.0767 
    104 H104       29.0512   22.2083   -1.6501 H         1 UNK         0.3013 
    105 H105       27.1787   30.0951   -0.7261 H         1 UNK         0.3121 
    106 H106       27.9762   32.8417   -0.1437 H         1 UNK         0.0774 
    107 H107       28.6582   32.8344   -2.5401 H         1 UNK         0.0815 
    108 H108       28.3645   31.1046   -2.6463 H         1 UNK         0.0815 
    109 H109       27.0247   32.2166   -2.3613 H         1 UNK         0.0815 
    110 H110       29.5078   29.6906   -0.2225 H         1 UNK         0.2987 
    111 H111       32.2629   30.6090   -0.3535 H         1 UNK         0.0949 
    112 H112       31.0677   27.8609    0.2941 H         1 UNK         0.0806 
    113 H113       31.5439   28.4165   -1.3112 H         1 UNK         0.0806 
    114 H114       32.7552   28.1900   -0.0618 H         1 UNK         0.0806 
    115 H115       31.2576   32.1012    1.5823 H         1 UNK         0.3010 
    116 H116       31.0696   31.1999    4.1977 H         1 UNK         0.0829 
    117 H117       30.3777   33.4563    3.4713 H         1 UNK         0.0813 
    118 H118       31.4859   33.5864    4.8269 H         1 UNK         0.0813 
    119 H119       32.0569   33.9222    3.1973 H         1 UNK         0.0813 
    120 H120       34.0223   31.8925    2.4151 H         1 UNK         0.3038 
    121 H121       35.9035   31.9446    4.5199 H         1 UNK         0.0769 
    122 H122       37.5464   31.4348    2.7001 H         1 UNK         0.0811 
    123 H123       36.4199   32.6871    2.2085 H         1 UNK         0.0811 
    124 H124       36.2289   31.0395    1.6054 H         1 UNK         0.0811 
    125 H125       34.2098   29.1692    3.1038 H         1 UNK         0.3204 
    126 H126       36.0706   27.1508    4.0018 H         1 UNK         0.0748 
    127 H127       34.2514   25.5863    3.4215 H         1 UNK         0.0771 
    128 H128       33.0991   26.9034    3.3018 H         1 UNK         0.0771 
    129 H129       34.4203   26.7799    2.1431 H         1 UNK         0.0771 
    130 H130       33.6721   29.0760    5.6336 H         1 UNK         0.2980 
    131 H131       33.5709   27.2861    7.9882 H         1 UNK         0.0545 
    132 H132       35.8890   29.4666    6.9045 H         1 UNK         0.3459 
    133 H133       36.3674   30.0619    8.4745 H         1 UNK         0.3459 
    134 H134       32.0283   29.8600    7.3979 H         1 UNK         0.0616 
    135 H135       31.8874   28.9206    8.8600 H         1 UNK         0.0616 
    136 H136       31.3166   28.8753    4.9655 H         1 UNK         0.0634 
    137 H137       30.0261   29.6747    5.8414 H         1 UNK         0.0634 
@<TRIPOS>BOND
     1    1    2 1    
     2    1   72 1    
     3    1   73 1    
     4    1   74 1    
     5    2    3 2    
     6    2    4 am   BACKBONE|DICT|INTERRES
     7    4    5 1    
     8    4   75 1    
     9    5    6 1    
    10    5   35 1    
    11    5   76 1    
    12    6    7 1    
    13    6   77 1    
    14    6   78 1    
    15    7    8 1    
    16    8    9 1    
    17    8   79 1    
    18    8   80 1    
    19    9   10 ar   
    20    9   14 ar   
    21   10   11 ar   
    22   10   81 1    
    23   11   12 ar   
    24   11   71 1    
    25   12   13 ar   
    26   12   82 1    
    27   13   14 ar   
    28   13   15 1    
    29   14   83 1    
    30   15   16 1    
    31   15   84 1    
    32   15   85 1    
    33   16   17 1    
    34   17   18 1    
    35   17   86 1    
    36   17   87 1    
    37   18   19 1    
    38   18   37 1    
    39   18   88 1    
    40   19   20 am   BACKBONE|DICT|INTERRES
    41   19   89 1    
    42   20   21 2    
    43   20   22 1    
    44   22   23 1    
    45   22   24 1    
    46   22   90 1    
    47   23   91 1    
    48   23   92 1    
    49   23   93 1    
    50   24   25 am   BACKBONE|DICT|INTERRES
    51   24   94 1    
    52   25   26 2    
    53   25   27 1    
    54   27   28 1    
    55   27   29 1    
    56   27   95 1    
    57   28   96 1    
    58   28   97 1    
    59   28   98 1    
    60   29   30 am   BACKBONE|DICT|INTERRES
    61   29   99 1    
    62   30   31 2    
    63   30   32 1    
    64   32   33 1    
    65   32   34 1    
    66   32  100 1    
    67   33  101 1    
    68   33  102 1    
    69   33  103 1    
    70   34   35 am   BACKBONE|DICT|INTERRES
    71   34  104 1    
    72   35   36 2    
    73   37   38 2    
    74   37   39 am   BACKBONE|DICT|INTERRES
    75   39   40 1    
    76   39  105 1    
    77   40   41 1    
    78   40   42 1    
    79   40  106 1    
    80   41  107 1    
    81   41  108 1    
    82   41  109 1    
    83   42   43 2    
    84   42   44 am   BACKBONE|DICT|INTERRES
    85   44   45 1    
    86   44  110 1    
    87   45   46 1    
    88   45   47 1    
    89   45  111 1    
    90   46  112 1    
    91   46  113 1    
    92   46  114 1    
    93   47   48 2    
    94   47   49 am   BACKBONE|DICT|INTERRES
    95   49   50 1    
    96   49  115 1    
    97   50   51 1    
    98   50   52 1    
    99   50  116 1    
   100   51  117 1    
   101   51  118 1    
   102   51  119 1    
   103   52   53 2    
   104   52   54 am   BACKBONE|DICT|INTERRES
   105   54   55 1    
   106   54  120 1    
   107   55   56 1    
   108   55   57 1    
   109   55  121 1    
   110   56  122 1    
   111   56  123 1    
   112   56  124 1    
   113   57   58 2    
   114   57   59 am   BACKBONE|DICT|INTERRES
   115   59   60 1    
   116   59  125 1    
   117   60   61 1    
   118   60   62 1    
   119   60  126 1    
   120   61  127 1    
   121   61  128 1    
   122   61  129 1    
   123   62   63 2    
   124   62   64 am   BACKBONE|DICT|INTERRES
   125   64   65 1    
   126   64  130 1    
   127   65   66 1    
   128   65   69 1    
   129   65  131 1    
   130   66   67 am   BACKBONE|DICT|INTERRES
   131   66   68 2    
   132   67  132 1    
   133   67  133 1    
   134   69   70 1    
   135   69  134 1    
   136   69  135 1    
   137   70   71 1    
   138   71  136 1    
   139   71  137 1    
@<TRIPOS>SUBSTRUCTURE
     1 UNK         1 GROUP             0       ****    0 ROOT    
