@<TRIPOS>MOLECULE
3R136
137   139    1
SMALL
USER_CHARGES


@<TRIPOS>ATOM
      1 CA         25.8216   26.9975    6.0522 C.3       0 UNK        -0.1979 
      2 C          26.5518   25.9256    5.2571 C.2       0 UNK         0.4864 
      3 O          26.9019   24.8840    5.8131 O.2       0 UNK        -0.5359 
      4 N          26.7767   26.1782    3.9635 N.am      1 UNK        -0.4318 
      5 CA         27.3414   25.2270    3.0064 C.3       1 UNK         0.0824 
      6 C6         28.3631   25.9253    2.0702 C.3       12 UNK        -0.0944 
      7 S7         28.9963   24.8899    0.7022 S.3       12 UNK        -0.2672 
      8 C8         30.6988   24.5210    1.2540 C.3       12 UNK         0.0333 
      9 C9         31.6450   25.7216    1.3359 C.ar      12 UNK        -0.0807 
     10 C10        32.8167   25.5988    2.0863 C.ar      12 UNK        -0.0894 
     11 C11        33.7116   26.6660    2.1956 C.ar      12 UNK        -0.0804 
     12 C12        33.4210   27.8753    1.5579 C.ar      12 UNK        -0.0824 
     13 C13        32.2506   28.0269    0.8070 C.ar      12 UNK        -0.0762 
     14 C14        31.3856   26.9330    0.6833 C.ar      12 UNK        -0.0782 
     15 C15        31.9397   29.3951    0.1914 C.3       12 UNK         0.0230 
     16 S16        30.9195   29.3773   -1.3266 S.3       12 UNK        -0.2608 
     17 C17        29.2250   29.2652   -0.6476 C.3       12 UNK        -0.0989 
     18 CA         28.2153   28.5212   -1.5674 C.3       5 UNK         0.0716 
     19 N          28.6781   27.1996   -1.9785 N.am      5 UNK        -0.4135 
     20 C          29.1388   26.8566   -3.1845 C.2       4 UNK         0.5031 
     21 O          29.3745   27.6525   -4.0947 O.2       4 UNK        -0.5229 
     22 CA         29.3392   25.3496   -3.4238 C.3       4 UNK         0.0329 
     23 CB         30.7508   24.9219   -2.9888 C.3       4 UNK        -0.2001 
     24 N          28.3454   24.5172   -2.7349 N.am      4 UNK        -0.4303 
     25 C          27.0257   24.5287   -2.9760 C.2       3 UNK         0.5044 
     26 O          26.4891   25.2307   -3.8337 O.2       3 UNK        -0.5152 
     27 CA         26.1514   23.6160   -2.1097 C.3       3 UNK         0.0319 
     28 CB         26.8912   22.3790   -1.5522 C.3       3 UNK        -0.2001 
     29 N          25.5860   24.4088   -1.0216 N.am      3 UNK        -0.4354 
     30 C          24.4806   24.0964   -0.3358 C.2       2 UNK         0.4964 
     31 O          23.7685   23.1229   -0.5930 O.2       2 UNK        -0.5047 
     32 CA         24.1296   25.0205    0.8490 C.3       2 UNK         0.0288 
     33 CB         23.0114   24.4548    1.7498 C.3       2 UNK        -0.2113 
     34 N          25.3004   25.3835    1.6572 N.am      2 UNK        -0.4145 
     35 C          26.1729   24.5561    2.2582 C.2       1 UNK         0.5006 
     36 O          26.0752   23.3275    2.2668 O.2       1 UNK        -0.5103 
     37 C          26.8735   28.3053   -0.8411 C.2       5 UNK         0.5055 
     38 O          26.5106   27.1598   -0.5483 O.2       5 UNK        -0.5220 
     39 N          26.1748   29.4028   -0.5243 N.am      6 UNK        -0.4450 
     40 CA         25.0294   29.4009    0.3876 C.3       6 UNK         0.0367 
     41 CB         24.1832   30.6699    0.1737 C.3       6 UNK        -0.1929 
     42 C          25.5330   29.2528    1.8329 C.2       6 UNK         0.5070 
     43 O          25.5185   28.1466    2.3749 O.2       6 UNK        -0.5237 
     44 N          26.0293   30.3521    2.4109 N.am      7 UNK        -0.4739 
     45 CA         26.7624   30.3487    3.6762 C.3       7 UNK         0.0276 
     46 CB         26.7207   31.7576    4.2887 C.3       7 UNK        -0.1927 
     47 C          28.2150   29.9086    3.4375 C.2       7 UNK         0.5013 
     48 O          28.8015   30.2899    2.4223 O.2       7 UNK        -0.5193 
     49 N          28.7750   29.1417    4.3800 N.am      8 UNK        -0.4253 
     50 CA         30.1860   28.7512    4.3757 C.3       8 UNK         0.0242 
     51 CB         30.3855   27.5600    5.3274 C.3       8 UNK        -0.2000 
     52 C          31.0831   29.9331    4.7836 C.2       8 UNK         0.4948 
     53 O          30.6400   30.8179    5.5221 O.2       8 UNK        -0.5275 
     54 N          32.3309   29.9133    4.3060 N.am      9 UNK        -0.4246 
     55 CA         33.3584   30.9074    4.6212 C.3       9 UNK         0.0261 
     56 CB         34.3276   30.9948    3.4258 C.3       9 UNK        -0.1959 
     57 C          34.1034   30.5471    5.9208 C.2       9 UNK         0.5033 
     58 O          33.7503   29.5820    6.6043 O.2       9 UNK        -0.5390 
     59 N          35.1723   31.2969    6.2184 N.am      10 UNK        -0.4215 
     60 CA         36.1762   30.9462    7.2262 C.3       10 UNK         0.0240 
     61 CB         36.9237   32.2215    7.6592 C.3       10 UNK        -0.1982 
     62 C          37.1189   29.8673    6.6569 C.2       10 UNK         0.4970 
     63 O          38.2611   30.1679    6.3054 O.2       10 UNK        -0.4916 
     64 N          36.5882   28.6470    6.5127 N.am      11 UNK        -0.4279 
     65 CA         37.2275   27.5055    5.8367 C.3       11 UNK         0.1003 
     66 C          38.5028   26.9434    6.5314 C.2       11 UNK         0.5709 
     67 N          38.7639   27.2527    7.7961 N.am      11 UNK        -0.7358 
     68 O          39.2699   26.2141    5.9071 O.2       11 UNK        -0.4999 
     69 C69        36.2165   26.3596    5.5567 C.3       12 UNK        -0.0954 
     70 S70        34.6689   26.9054    4.7562 S.3       12 UNK        -0.2268 
     71 C71        34.9832   26.5067    3.0140 C.3       12 UNK         0.0203 
     72 H72        25.3075   27.7036    5.4004 H         1 UNK         0.0888 
     73 H73        25.0739   26.5404    6.7000 H         1 UNK         0.0888 
     74 H74        26.5231   27.5478    6.6783 H         1 UNK         0.0888 
     75 H75        26.3913   27.0232    3.5467 H         1 UNK         0.3017 
     76 H76        27.8789   24.4391    3.5387 H         1 UNK         0.0873 
     77 H77        27.9232   26.8206    1.6313 H         1 UNK         0.0745 
     78 H78        29.2037   26.2846    2.6639 H         1 UNK         0.0745 
     79 H79        30.6414   24.0322    2.2279 H         1 UNK         0.0705 
     80 H80        31.1293   23.7919    0.5666 H         1 UNK         0.0705 
     81 H81        33.0351   24.6674    2.5913 H         1 UNK         0.1334 
     82 H82        34.1099   28.7027    1.6491 H         1 UNK         0.1417 
     83 H83        30.4981   27.0227    0.0828 H         1 UNK         0.1562 
     84 H84        32.8762   29.8968   -0.0572 H         1 UNK         0.0748 
     85 H85        31.4521   30.0176    0.9436 H         1 UNK         0.0748 
     86 H86        28.8848   30.2856   -0.4631 H         1 UNK         0.0940 
     87 H87        29.2624   28.7964    0.3363 H         1 UNK         0.0940 
     88 H88        28.0169   29.1305   -2.4516 H         1 UNK         0.0703 
     89 H89        28.4319   26.4618   -1.3313 H         1 UNK         0.3081 
     90 H90        29.2391   25.1686   -4.4961 H         1 UNK         0.0719 
     91 H91        30.9055   25.0629   -1.9183 H         1 UNK         0.0809 
     92 H92        30.9388   23.8737   -3.2212 H         1 UNK         0.0809 
     93 H93        31.5114   25.5088   -3.5057 H         1 UNK         0.0809 
     94 H94        28.6896   23.9126   -2.0024 H         1 UNK         0.2990 
     95 H95        25.3392   23.2662   -2.7506 H         1 UNK         0.0690 
     96 H96        27.4079   21.8357   -2.3447 H         1 UNK         0.0788 
     97 H97        26.1910   21.6805   -1.0938 H         1 UNK         0.0788 
     98 H98        27.6253   22.6443   -0.7913 H         1 UNK         0.0788 
     99 H99        26.0652   25.2781   -0.7937 H         1 UNK         0.2993 
    100 H100       23.7639   25.9492    0.4083 H         1 UNK         0.0949 
    101 H101       22.7667   25.1456    2.5568 H         1 UNK         0.0767 
    102 H102       22.0968   24.2860    1.1801 H         1 UNK         0.0767 
    103 H103       23.2974   23.5028    2.1983 H         1 UNK         0.0767 
    104 H104       25.4798   26.3828    1.7221 H         1 UNK         0.3013 
    105 H105       26.5324   30.3058   -0.8011 H         1 UNK         0.3121 
    106 H106       24.3967   28.5379    0.1685 H         1 UNK         0.0774 
    107 H107       24.7667   31.5853    0.2750 H         1 UNK         0.0815 
    108 H108       23.3656   30.7193    0.8944 H         1 UNK         0.0815 
    109 H109       23.7344   30.6753   -0.8198 H         1 UNK         0.0815 
    110 H110       26.0578   31.2094    1.8793 H         1 UNK         0.2987 
    111 H111       26.2817   29.6558    4.3691 H         1 UNK         0.0949 
    112 H112       25.6960   32.0796    4.4752 H         1 UNK         0.0806 
    113 H113       27.2477   31.7834    5.2436 H         1 UNK         0.0806 
    114 H114       27.1922   32.4955    3.6382 H         1 UNK         0.0806 
    115 H115       28.2567   28.9363    5.2204 H         1 UNK         0.3010 
    116 H116       30.4574   28.4375    3.3646 H         1 UNK         0.0829 
    117 H117       30.1506   27.8239    6.3593 H         1 UNK         0.0813 
    118 H118       29.7598   26.7130    5.0459 H         1 UNK         0.0813 
    119 H119       31.4209   27.2162    5.3080 H         1 UNK         0.0813 
    120 H120       32.6363   29.1036    3.7853 H         1 UNK         0.3038 
    121 H121       32.8874   31.8830    4.7598 H         1 UNK         0.0769 
    122 H122       34.9996   31.8485    3.5173 H         1 UNK         0.0811 
    123 H123       34.9478   30.1009    3.3447 H         1 UNK         0.0811 
    124 H124       33.7899   31.1203    2.4857 H         1 UNK         0.0811 
    125 H125       35.4083   32.0631    5.6041 H         1 UNK         0.3204 
    126 H126       35.6811   30.5325    8.1076 H         1 UNK         0.0748 
    127 H127       37.6829   31.9921    8.4083 H         1 UNK         0.0771 
    128 H128       37.4279   32.7042    6.8208 H         1 UNK         0.0771 
    129 H129       36.2422   32.9478    8.1025 H         1 UNK         0.0771 
    130 H130       35.6139   28.5219    6.7631 H         1 UNK         0.2980 
    131 H131       37.5627   27.8785    4.8671 H         1 UNK         0.0545 
    132 H132       39.5941   26.8855    8.2338 H         1 UNK         0.3459 
    133 H133       38.1407   27.8508    8.3140 H         1 UNK         0.3459 
    134 H134       35.9378   25.8736    6.4935 H         1 UNK         0.0616 
    135 H135       36.6780   25.5834    4.9435 H         1 UNK         0.0616 
    136 H136       35.7725   27.1549    2.6302 H         1 UNK         0.0634 
    137 H137       35.3502   25.4826    2.9311 H         1 UNK         0.0634 
@<TRIPOS>BOND
     1    1    2 1    
     2    1   72 1    
     3    1   73 1    
     4    1   74 1    
     5    2    3 2    
     6    2    4 am   BACKBONE|DICT|INTERRES
     7    4    5 1    
     8    4   75 1    
     9    5    6 1    
    10    5   35 1    
    11    5   76 1    
    12    6    7 1    
    13    6   77 1    
    14    6   78 1    
    15    7    8 1    
    16    8    9 1    
    17    8   79 1    
    18    8   80 1    
    19    9   10 ar   
    20    9   14 ar   
    21   10   11 ar   
    22   10   81 1    
    23   11   12 ar   
    24   11   71 1    
    25   12   13 ar   
    26   12   82 1    
    27   13   14 ar   
    28   13   15 1    
    29   14   83 1    
    30   15   16 1    
    31   15   84 1    
    32   15   85 1    
    33   16   17 1    
    34   17   18 1    
    35   17   86 1    
    36   17   87 1    
    37   18   19 1    
    38   18   37 1    
    39   18   88 1    
    40   19   20 am   BACKBONE|DICT|INTERRES
    41   19   89 1    
    42   20   21 2    
    43   20   22 1    
    44   22   23 1    
    45   22   24 1    
    46   22   90 1    
    47   23   91 1    
    48   23   92 1    
    49   23   93 1    
    50   24   25 am   BACKBONE|DICT|INTERRES
    51   24   94 1    
    52   25   26 2    
    53   25   27 1    
    54   27   28 1    
    55   27   29 1    
    56   27   95 1    
    57   28   96 1    
    58   28   97 1    
    59   28   98 1    
    60   29   30 am   BACKBONE|DICT|INTERRES
    61   29   99 1    
    62   30   31 2    
    63   30   32 1    
    64   32   33 1    
    65   32   34 1    
    66   32  100 1    
    67   33  101 1    
    68   33  102 1    
    69   33  103 1    
    70   34   35 am   BACKBONE|DICT|INTERRES
    71   34  104 1    
    72   35   36 2    
    73   37   38 2    
    74   37   39 am   BACKBONE|DICT|INTERRES
    75   39   40 1    
    76   39  105 1    
    77   40   41 1    
    78   40   42 1    
    79   40  106 1    
    80   41  107 1    
    81   41  108 1    
    82   41  109 1    
    83   42   43 2    
    84   42   44 am   BACKBONE|DICT|INTERRES
    85   44   45 1    
    86   44  110 1    
    87   45   46 1    
    88   45   47 1    
    89   45  111 1    
    90   46  112 1    
    91   46  113 1    
    92   46  114 1    
    93   47   48 2    
    94   47   49 am   BACKBONE|DICT|INTERRES
    95   49   50 1    
    96   49  115 1    
    97   50   51 1    
    98   50   52 1    
    99   50  116 1    
   100   51  117 1    
   101   51  118 1    
   102   51  119 1    
   103   52   53 2    
   104   52   54 am   BACKBONE|DICT|INTERRES
   105   54   55 1    
   106   54  120 1    
   107   55   56 1    
   108   55   57 1    
   109   55  121 1    
   110   56  122 1    
   111   56  123 1    
   112   56  124 1    
   113   57   58 2    
   114   57   59 am   BACKBONE|DICT|INTERRES
   115   59   60 1    
   116   59  125 1    
   117   60   61 1    
   118   60   62 1    
   119   60  126 1    
   120   61  127 1    
   121   61  128 1    
   122   61  129 1    
   123   62   63 2    
   124   62   64 am   BACKBONE|DICT|INTERRES
   125   64   65 1    
   126   64  130 1    
   127   65   66 1    
   128   65   69 1    
   129   65  131 1    
   130   66   67 am   BACKBONE|DICT|INTERRES
   131   66   68 2    
   132   67  132 1    
   133   67  133 1    
   134   69   70 1    
   135   69  134 1    
   136   69  135 1    
   137   70   71 1    
   138   71  136 1    
   139   71  137 1    
@<TRIPOS>SUBSTRUCTURE
     1 UNK         1 GROUP             0       ****    0 ROOT    
