@<TRIPOS>MOLECULE
3R136
137   139    1
SMALL
USER_CHARGES


@<TRIPOS>ATOM
      1 CA         28.5013   16.5172   -1.7408 C.3       0 UNK        -0.1979 
      2 C          28.8620   17.9945   -1.7930 C.2       0 UNK         0.4864 
      3 O          29.0408   18.5412   -2.8821 O.2       0 UNK        -0.5359 
      4 N          28.9701   18.6435   -0.6247 N.am      1 UNK        -0.4318 
      5 CA         29.3034   20.0679   -0.4834 C.3       1 UNK         0.0824 
      6 C6         29.7877   20.3857    0.9566 C.3       12 UNK        -0.0944 
      7 S7         30.9672   21.7766    1.0223 S.3       12 UNK        -0.2672 
      8 C8         29.8918   23.0765    1.6963 C.3       12 UNK         0.0333 
      9 C9         30.5949   24.4218    1.7712 C.ar      12 UNK        -0.0807 
     10 C10        30.9669   24.9556    3.0082 C.ar      12 UNK        -0.0894 
     11 C11        31.5684   26.2150    3.0842 C.ar      12 UNK        -0.0804 
     12 C12        31.8055   26.9386    1.9127 C.ar      12 UNK        -0.0824 
     13 C13        31.4253   26.4194    0.6715 C.ar      12 UNK        -0.0762 
     14 C14        30.8233   25.1592    0.6062 C.ar      12 UNK        -0.0782 
     15 C15        31.6607   27.2164   -0.6016 C.3       12 UNK         0.0230 
     16 S16        30.1126   27.9213   -1.2507 S.3       12 UNK        -0.2608 
     17 C17        29.7198   29.2013   -0.0122 C.3       12 UNK        -0.0989 
     18 CA         28.3422   28.9727    0.6561 C.3       5 UNK         0.0716 
     19 N          28.2769   27.7256    1.4284 N.am      5 UNK        -0.4135 
     20 C          27.1318   27.1614    1.8357 C.2       4 UNK         0.5031 
     21 O          26.0114   27.6279    1.6110 O.2       4 UNK        -0.5229 
     22 CA         27.2485   25.8638    2.6388 C.3       4 UNK         0.0329 
     23 CB         27.3903   26.1475    4.1443 C.3       4 UNK        -0.2001 
     24 N          26.0595   25.0579    2.3837 N.am      4 UNK        -0.4303 
     25 C          25.9916   23.7257    2.4673 C.2       3 UNK         0.5044 
     26 O          26.9129   23.0178    2.8750 O.2       3 UNK        -0.5152 
     27 CA         24.6840   23.0412    2.0284 C.3       3 UNK         0.0319 
     28 CB         23.5256   24.0087    1.6868 C.3       3 UNK        -0.2001 
     29 N          24.9389   22.0955    0.9344 N.am      3 UNK        -0.4354 
     30 C          25.3663   22.3867   -0.3041 C.2       2 UNK         0.4964 
     31 O          25.5488   23.5307   -0.7247 O.2       2 UNK        -0.5047 
     32 CA         25.6426   21.1735   -1.2115 C.3       2 UNK         0.0288 
     33 CB         25.5971   21.5229   -2.7154 C.3       2 UNK        -0.2113 
     34 N          26.9026   20.5044   -0.8597 N.am      2 UNK        -0.4145 
     35 C          28.1509   21.0017   -0.9281 C.2       1 UNK         0.5006 
     36 O          28.4232   22.1307   -1.3383 O.2       1 UNK        -0.5103 
     37 C          27.9468   30.2025    1.4966 C.2       5 UNK         0.5055 
     38 O          27.3207   31.1144    0.9555 O.2       5 UNK        -0.5220 
     39 N          28.3385   30.2210    2.7822 N.am      6 UNK        -0.4450 
     40 CA         28.0782   31.2379    3.8191 C.3       6 UNK         0.0367 
     41 CB         26.5700   31.3523    4.1109 C.3       6 UNK        -0.1929 
     42 C          28.6939   32.6325    3.5722 C.2       6 UNK         0.5070 
     43 O          29.0805   33.2950    4.5349 O.2       6 UNK        -0.5237 
     44 N          28.7864   33.0589    2.3086 N.am      7 UNK        -0.4739 
     45 CA         29.4541   34.2883    1.8752 C.3       7 UNK         0.0276 
     46 CB         28.8231   34.7566    0.5539 C.3       7 UNK        -0.1927 
     47 C          30.9738   34.1080    1.7087 C.2       7 UNK         0.5013 
     48 O          31.7010   35.1023    1.7198 O.2       7 UNK        -0.5193 
     49 N          31.4269   32.8572    1.5413 N.am      8 UNK        -0.4253 
     50 CA         32.8384   32.4869    1.4380 C.3       8 UNK         0.0242 
     51 CB         32.9494   31.0715    0.8475 C.3       8 UNK        -0.2000 
     52 C          33.5013   32.5336    2.8201 C.2       8 UNK         0.4948 
     53 O          32.9051   32.0557    3.7868 O.2       8 UNK        -0.5275 
     54 N          34.7388   33.0426    2.8862 N.am      9 UNK        -0.4246 
     55 CA         35.5141   33.2593    4.1187 C.3       9 UNK         0.0261 
     56 CB         36.8563   33.9158    3.7544 C.3       9 UNK        -0.1959 
     57 C          35.7492   32.0115    4.9957 C.2       9 UNK         0.5033 
     58 O          36.0754   32.1593    6.1744 O.2       9 UNK        -0.5390 
     59 N          35.5720   30.8159    4.4193 N.am      10 UNK        -0.4215 
     60 CA         35.6237   29.5263    5.1051 C.3       10 UNK         0.0240 
     61 CB         35.6396   28.4047    4.0529 C.3       10 UNK        -0.1982 
     62 C          34.4852   29.3016    6.1210 C.2       10 UNK         0.4970 
     63 O          34.6904   28.5295    7.0589 O.2       10 UNK        -0.4916 
     64 N          33.3237   29.9471    5.9345 N.am      11 UNK        -0.4279 
     65 CA         32.1523   29.7919    6.8181 C.3       11 UNK         0.1003 
     66 C          31.1527   30.9818    6.8270 C.2       11 UNK         0.5709 
     67 N          31.2866   31.9875    5.9766 N.am      11 UNK        -0.7358 
     68 O          30.2344   31.0008    7.6436 O.2       11 UNK        -0.4999 
     69 C69        31.4340   28.4233    6.6404 C.3       12 UNK        -0.0954 
     70 S70        30.8278   28.1152    4.9448 S.3       12 UNK        -0.2268 
     71 C71        31.9644   26.7925    4.4319 C.3       12 UNK         0.0203 
     72 H72        29.2849   15.9232   -2.2104 H         1 UNK         0.0888 
     73 H73        28.3755   16.1631   -0.7177 H         1 UNK         0.0888 
     74 H74        27.5702   16.3390   -2.2781 H         1 UNK         0.0888 
     75 H75        28.8246   18.1358    0.2370 H         1 UNK         0.3017 
     76 H76        30.1349   20.2567   -1.1668 H         1 UNK         0.0873 
     77 H77        30.3220   19.5270    1.3669 H         1 UNK         0.0745 
     78 H78        28.9492   20.5570    1.6353 H         1 UNK         0.0745 
     79 H79        29.0002   23.1746    1.0762 H         1 UNK         0.0705 
     80 H80        29.5490   22.7706    2.6858 H         1 UNK         0.0705 
     81 H81        30.7775   24.3949    3.9136 H         1 UNK         0.1334 
     82 H82        32.2770   27.9096    1.9738 H         1 UNK         0.1417 
     83 H83        30.5221   24.7542   -0.3513 H         1 UNK         0.1562 
     84 H84        32.0949   26.5629   -1.3598 H         1 UNK         0.0748 
     85 H85        32.3859   28.0153   -0.4379 H         1 UNK         0.0748 
     86 H86        29.7379   30.1613   -0.5330 H         1 UNK         0.0940 
     87 H87        30.5072   29.2531    0.7394 H         1 UNK         0.0940 
     88 H88        27.6013   28.8958   -0.1434 H         1 UNK         0.0703 
     89 H89        29.1552   27.2628    1.6182 H         1 UNK         0.3081 
     90 H90        28.1229   25.3208    2.2846 H         1 UNK         0.0719 
     91 H91        26.5240   26.6815    4.5365 H         1 UNK         0.0809 
     92 H92        27.5026   25.2246    4.7134 H         1 UNK         0.0809 
     93 H93        28.2702   26.7575    4.3459 H         1 UNK         0.0809 
     94 H94        25.2792   25.5778    2.0010 H         1 UNK         0.2990 
     95 H95        24.3614   22.4413    2.8808 H         1 UNK         0.0690 
     96 H96        22.6215   23.4571    1.4288 H         1 UNK         0.0788 
     97 H97        23.7594   24.6642    0.8474 H         1 UNK         0.0788 
     98 H98        23.2782   24.6410    2.5406 H         1 UNK         0.0788 
     99 H99        24.8603   21.1206    1.1889 H         1 UNK         0.2993 
    100 H100       24.8445   20.4514   -1.0298 H         1 UNK         0.0949 
    101 H101       25.7502   20.6370   -3.3318 H         1 UNK         0.0767 
    102 H102       24.6278   21.9439   -2.9854 H         1 UNK         0.0767 
    103 H103       26.3548   22.2567   -2.9919 H         1 UNK         0.0767 
    104 H104       26.8071   19.5631   -0.5057 H         1 UNK         0.3013 
    105 H105       28.8782   29.4298    3.1053 H         1 UNK         0.3121 
    106 H106       28.5558   30.8555    4.7232 H         1 UNK         0.0774 
    107 H107       26.3862   32.0269    4.9482 H         1 UNK         0.0815 
    108 H108       26.0177   31.7411    3.2549 H         1 UNK         0.0815 
    109 H109       26.1430   30.3846    4.3743 H         1 UNK         0.0815 
    110 H110       28.3499   32.4811    1.5931 H         1 UNK         0.2987 
    111 H111       29.2955   35.0654    2.6264 H         1 UNK         0.0949 
    112 H112       28.9468   34.0165   -0.2379 H         1 UNK         0.0806 
    113 H113       27.7562   34.9475    0.6705 H         1 UNK         0.0806 
    114 H114       29.2815   35.6845    0.2088 H         1 UNK         0.0806 
    115 H115       30.7599   32.1051    1.6106 H         1 UNK         0.3010 
    116 H116       33.3373   33.1908    0.7681 H         1 UNK         0.0829 
    117 H117       32.4486   31.0008   -0.1183 H         1 UNK         0.0813 
    118 H118       33.9927   30.7951    0.6899 H         1 UNK         0.0813 
    119 H119       32.5135   30.3245    1.5114 H         1 UNK         0.0813 
    120 H120       35.1617   33.3822    2.0337 H         1 UNK         0.3038 
    121 H121       34.9464   33.9640    4.7298 H         1 UNK         0.0769 
    122 H122       37.4575   33.2731    3.1100 H         1 UNK         0.0811 
    123 H123       37.4466   34.1240    4.6481 H         1 UNK         0.0811 
    124 H124       36.7089   34.8660    3.2406 H         1 UNK         0.0811 
    125 H125       35.3056   30.8034    3.4463 H         1 UNK         0.3204 
    126 H126       36.5626   29.4835    5.6613 H         1 UNK         0.0748 
    127 H127       36.5250   28.4694    3.4200 H         1 UNK         0.0771 
    128 H128       35.6544   27.4216    4.5259 H         1 UNK         0.0771 
    129 H129       34.7629   28.4446    3.4054 H         1 UNK         0.0771 
    130 H130       33.2176   30.5829    5.1519 H         1 UNK         0.2980 
    131 H131       32.5448   29.8036    7.8368 H         1 UNK         0.0545 
    132 H132       31.9842   31.9893    5.2354 H         1 UNK         0.3459 
    133 H133       30.5789   32.7085    5.9663 H         1 UNK         0.3459 
    134 H134       30.5851   28.3421    7.3215 H         1 UNK         0.0616 
    135 H135       32.1063   27.6177    6.9372 H         1 UNK         0.0616 
    136 H136       32.9795   27.1844    4.3828 H         1 UNK         0.0634 
    137 H137       31.9717   26.0084    5.1907 H         1 UNK         0.0634 
@<TRIPOS>BOND
     1    1    2 1    
     2    1   72 1    
     3    1   73 1    
     4    1   74 1    
     5    2    3 2    
     6    2    4 am   BACKBONE|DICT|INTERRES
     7    4    5 1    
     8    4   75 1    
     9    5    6 1    
    10    5   35 1    
    11    5   76 1    
    12    6    7 1    
    13    6   77 1    
    14    6   78 1    
    15    7    8 1    
    16    8    9 1    
    17    8   79 1    
    18    8   80 1    
    19    9   10 ar   
    20    9   14 ar   
    21   10   11 ar   
    22   10   81 1    
    23   11   12 ar   
    24   11   71 1    
    25   12   13 ar   
    26   12   82 1    
    27   13   14 ar   
    28   13   15 1    
    29   14   83 1    
    30   15   16 1    
    31   15   84 1    
    32   15   85 1    
    33   16   17 1    
    34   17   18 1    
    35   17   86 1    
    36   17   87 1    
    37   18   19 1    
    38   18   37 1    
    39   18   88 1    
    40   19   20 am   BACKBONE|DICT|INTERRES
    41   19   89 1    
    42   20   21 2    
    43   20   22 1    
    44   22   23 1    
    45   22   24 1    
    46   22   90 1    
    47   23   91 1    
    48   23   92 1    
    49   23   93 1    
    50   24   25 am   BACKBONE|DICT|INTERRES
    51   24   94 1    
    52   25   26 2    
    53   25   27 1    
    54   27   28 1    
    55   27   29 1    
    56   27   95 1    
    57   28   96 1    
    58   28   97 1    
    59   28   98 1    
    60   29   30 am   BACKBONE|DICT|INTERRES
    61   29   99 1    
    62   30   31 2    
    63   30   32 1    
    64   32   33 1    
    65   32   34 1    
    66   32  100 1    
    67   33  101 1    
    68   33  102 1    
    69   33  103 1    
    70   34   35 am   BACKBONE|DICT|INTERRES
    71   34  104 1    
    72   35   36 2    
    73   37   38 2    
    74   37   39 am   BACKBONE|DICT|INTERRES
    75   39   40 1    
    76   39  105 1    
    77   40   41 1    
    78   40   42 1    
    79   40  106 1    
    80   41  107 1    
    81   41  108 1    
    82   41  109 1    
    83   42   43 2    
    84   42   44 am   BACKBONE|DICT|INTERRES
    85   44   45 1    
    86   44  110 1    
    87   45   46 1    
    88   45   47 1    
    89   45  111 1    
    90   46  112 1    
    91   46  113 1    
    92   46  114 1    
    93   47   48 2    
    94   47   49 am   BACKBONE|DICT|INTERRES
    95   49   50 1    
    96   49  115 1    
    97   50   51 1    
    98   50   52 1    
    99   50  116 1    
   100   51  117 1    
   101   51  118 1    
   102   51  119 1    
   103   52   53 2    
   104   52   54 am   BACKBONE|DICT|INTERRES
   105   54   55 1    
   106   54  120 1    
   107   55   56 1    
   108   55   57 1    
   109   55  121 1    
   110   56  122 1    
   111   56  123 1    
   112   56  124 1    
   113   57   58 2    
   114   57   59 am   BACKBONE|DICT|INTERRES
   115   59   60 1    
   116   59  125 1    
   117   60   61 1    
   118   60   62 1    
   119   60  126 1    
   120   61  127 1    
   121   61  128 1    
   122   61  129 1    
   123   62   63 2    
   124   62   64 am   BACKBONE|DICT|INTERRES
   125   64   65 1    
   126   64  130 1    
   127   65   66 1    
   128   65   69 1    
   129   65  131 1    
   130   66   67 am   BACKBONE|DICT|INTERRES
   131   66   68 2    
   132   67  132 1    
   133   67  133 1    
   134   69   70 1    
   135   69  134 1    
   136   69  135 1    
   137   70   71 1    
   138   71  136 1    
   139   71  137 1    
@<TRIPOS>SUBSTRUCTURE
     1 UNK         1 GROUP             0       ****    0 ROOT    
