@<TRIPOS>MOLECULE
3R136
137   139    1
SMALL
USER_CHARGES


@<TRIPOS>ATOM
      1 CA         28.7864   19.9358    2.3928 C.3       0 UNK        -0.1979 
      2 C          28.2364   20.9237    1.3753 C.2       0 UNK         0.4864 
      3 O          27.0316   20.9345    1.1168 O.2       0 UNK        -0.5359 
      4 N          29.1077   21.7632    0.7999 N.am      1 UNK        -0.4318 
      5 CA         28.7967   22.7974   -0.1932 C.3       1 UNK         0.0824 
      6 C6         30.0427   23.1488   -1.0591 C.3       12 UNK        -0.0944 
      7 S7         31.4411   23.9544   -0.1965 S.3       12 UNK        -0.2672 
      8 C8         32.3806   22.5554    0.4986 C.3       12 UNK         0.0333 
      9 C9         32.7697   22.8608    1.9378 C.ar      12 UNK        -0.0807 
     10 C10        34.1105   23.0321    2.2968 C.ar      12 UNK        -0.0894 
     11 C11        34.4512   23.4063    3.6017 C.ar      12 UNK        -0.0804 
     12 C12        33.4426   23.6018    4.5503 C.ar      12 UNK        -0.0824 
     13 C13        32.1009   23.4579    4.1930 C.ar      12 UNK        -0.0762 
     14 C14        31.7740   23.0477    2.9007 C.ar      12 UNK        -0.0782 
     15 C15        31.0023   23.8324    5.1726 C.3       12 UNK         0.0230 
     16 S16        30.6932   25.6291    5.1345 S.3       12 UNK        -0.2608 
     17 C17        29.8345   25.8416    3.5329 C.3       12 UNK        -0.0989 
     18 CA         29.7285   27.3253    3.1107 C.3       5 UNK         0.0716 
     19 N          29.3657   27.4688    1.6983 N.am      5 UNK        -0.4135 
     20 C          29.3189   28.6244    1.0173 C.2       4 UNK         0.5031 
     21 O          29.5389   29.7293    1.5156 O.2       4 UNK        -0.5229 
     22 CA         28.9684   28.5459   -0.4742 C.3       4 UNK         0.0329 
     23 CB         30.1622   28.0071   -1.2796 C.3       4 UNK        -0.2001 
     24 N          27.8041   27.6903   -0.6967 N.am      4 UNK        -0.4303 
     25 C          26.6129   28.1055   -1.1507 C.2       3 UNK         0.5044 
     26 O          26.3731   29.2644   -1.4908 O.2       3 UNK        -0.5152 
     27 CA         25.4867   27.0558   -1.2509 C.3       3 UNK         0.0319 
     28 CB         25.3577   26.5449   -2.6950 C.3       3 UNK        -0.2001 
     29 N          25.6757   25.9123   -0.3550 N.am      3 UNK        -0.4354 
     30 C          25.6132   25.9725    0.9828 C.2       2 UNK         0.4964 
     31 O          25.2405   26.9702    1.5985 O.2       2 UNK        -0.5047 
     32 CA         26.0617   24.7274    1.7739 C.3       2 UNK         0.0288 
     33 CB         24.8419   23.9845    2.3426 C.3       2 UNK        -0.2113 
     34 N          26.8979   23.7677    1.0368 N.am      2 UNK        -0.4145 
     35 C          28.0720   24.0139    0.4379 C.2       1 UNK         0.5006 
     36 O          28.5647   25.1414    0.3805 O.2       1 UNK        -0.5103 
     37 C          28.7666   28.1172    4.0147 C.2       5 UNK         0.5055 
     38 O          27.5802   27.7902    4.0763 O.2       5 UNK        -0.5220 
     39 N          29.2971   29.1697    4.6503 N.am      6 UNK        -0.4450 
     40 CA         28.6468   30.1615    5.5174 C.3       6 UNK         0.0367 
     41 CB         27.9445   29.5010    6.7195 C.3       6 UNK        -0.1929 
     42 C          27.7038   31.1262    4.7752 C.2       6 UNK         0.5070 
     43 O          27.5953   32.2825    5.1835 O.2       6 UNK        -0.5237 
     44 N          27.0599   30.6597    3.6981 N.am      7 UNK        -0.4739 
     45 CA         26.2111   31.4460    2.8025 C.3       7 UNK         0.0276 
     46 CB         25.5054   30.4999    1.8194 C.3       7 UNK        -0.1927 
     47 C          26.9871   32.5369    2.0450 C.2       7 UNK         0.5013 
     48 O          26.4658   33.6420    1.8877 O.2       7 UNK        -0.5193 
     49 N          28.2120   32.2138    1.6102 N.am      8 UNK        -0.4253 
     50 CA         29.1470   33.1400    0.9759 C.3       8 UNK         0.0242 
     51 CB         29.6120   32.5712   -0.3763 C.3       8 UNK        -0.2000 
     52 C          30.3433   33.4065    1.8983 C.2       8 UNK         0.4948 
     53 O          30.6757   34.5719    2.1197 O.2       8 UNK        -0.5275 
     54 N          30.9680   32.3426    2.4223 N.am      9 UNK        -0.4246 
     55 CA         32.1631   32.4004    3.2672 C.3       9 UNK         0.0261 
     56 CB         33.3933   32.7839    2.4164 C.3       9 UNK        -0.1959 
     57 C          32.3829   31.0372    3.9312 C.2       9 UNK         0.5033 
     58 O          31.7135   30.0658    3.5722 O.2       9 UNK        -0.5390 
     59 N          33.3455   30.9555    4.8585 N.am      10 UNK        -0.4215 
     60 CA         33.8387   29.6866    5.4037 C.3       10 UNK         0.0240 
     61 CB         34.8336   29.9627    6.5432 C.3       10 UNK        -0.1982 
     62 C          34.4882   28.8541    4.2834 C.2       10 UNK         0.4970 
     63 O          35.4480   29.3248    3.6690 O.2       10 UNK        -0.4916 
     64 N          33.9110   27.6780    4.0093 N.am      11 UNK        -0.4279 
     65 CA         34.2167   26.8192    2.8504 C.3       11 UNK         0.1003 
     66 C          33.7941   27.4245    1.4746 C.2       11 UNK         0.5709 
     67 N          32.9518   28.4514    1.4235 N.am      11 UNK        -0.7358 
     68 O          34.2199   26.9458    0.4264 O.2       11 UNK        -0.4999 
     69 C69        35.6786   26.2700    2.8380 C.3       12 UNK        -0.0954 
     70 S70        36.1675   25.4358    4.3883 S.3       12 UNK        -0.2268 
     71 C71        35.9012   23.6799    3.9719 C.3       12 UNK         0.0203 
     72 H72        28.5846   18.9148    2.0702 H         1 UNK         0.0888 
     73 H73        29.8628   20.0427    2.5270 H         1 UNK         0.0888 
     74 H74        28.3076   20.0886    3.3597 H         1 UNK         0.0888 
     75 H75        30.0819   21.6991    1.0500 H         1 UNK         0.3017 
     76 H76        28.0712   22.3620   -0.8842 H         1 UNK         0.0873 
     77 H77        30.4134   22.2498   -1.5543 H         1 UNK         0.0745 
     78 H78        29.7402   23.8148   -1.8693 H         1 UNK         0.0745 
     79 H79        31.8051   21.6312    0.4624 H         1 UNK         0.0705 
     80 H80        33.2647   22.3878   -0.1185 H         1 UNK         0.0705 
     81 H81        34.8856   22.9128    1.5521 H         1 UNK         0.1334 
     82 H82        33.7009   23.9332    5.5470 H         1 UNK         0.1417 
     83 H83        30.7340   22.9572    2.6253 H         1 UNK         0.1562 
     84 H84        31.2945   23.5428    6.1831 H         1 UNK         0.0748 
     85 H85        30.0795   23.2933    4.9522 H         1 UNK         0.0748 
     86 H86        28.8527   25.3680    3.5803 H         1 UNK         0.0940 
     87 H87        30.3946   25.3078    2.7666 H         1 UNK         0.0940 
     88 H88        30.7273   27.7519    3.2037 H         1 UNK         0.0703 
     89 H89        29.1482   26.6053    1.2054 H         1 UNK         0.3081 
     90 H90        28.7636   29.5626   -0.8155 H         1 UNK         0.0719 
     91 H91        30.4303   26.9917   -0.9827 H         1 UNK         0.0809 
     92 H92        31.0435   28.6334   -1.1373 H         1 UNK         0.0809 
     93 H93        29.9433   27.9947   -2.3473 H         1 UNK         0.0809 
     94 H94        27.9079   26.7172   -0.4234 H         1 UNK         0.2990 
     95 H95        24.5525   27.5504   -0.9765 H         1 UNK         0.0690 
     96 H96        24.5186   25.8568   -2.7999 H         1 UNK         0.0788 
     97 H97        26.2608   26.0289   -3.0237 H         1 UNK         0.0788 
     98 H98        25.1850   27.3710   -3.3865 H         1 UNK         0.0788 
     99 H99        25.9656   25.0438   -0.7793 H         1 UNK         0.2993 
    100 H100       26.6562   25.0956    2.6121 H         1 UNK         0.0949 
    101 H101       25.1449   23.1692    3.0001 H         1 UNK         0.0767 
    102 H102       24.2125   24.6549    2.9299 H         1 UNK         0.0767 
    103 H103       24.2219   23.5642    1.5497 H         1 UNK         0.0767 
    104 H104       26.6010   22.7947    1.0616 H         1 UNK         0.3013 
    105 H105       30.2534   29.4096    4.3867 H         1 UNK         0.3121 
    106 H106       29.4606   30.7729    5.9107 H         1 UNK         0.0774 
    107 H107       27.5826   30.2562    7.4183 H         1 UNK         0.0815 
    108 H108       27.0829   28.9067    6.4144 H         1 UNK         0.0815 
    109 H109       28.6252   28.8500    7.2680 H         1 UNK         0.0815 
    110 H110       27.1714   29.6740    3.4847 H         1 UNK         0.2987 
    111 H111       25.4515   31.9421    3.4106 H         1 UNK         0.0949 
    112 H112       26.2229   29.9342    1.2246 H         1 UNK         0.0806 
    113 H113       24.8708   29.7837    2.3418 H         1 UNK         0.0806 
    114 H114       24.8700   31.0532    1.1265 H         1 UNK         0.0806 
    115 H115       28.5591   31.2706    1.7714 H         1 UNK         0.3010 
    116 H116       28.6598   34.0981    0.7826 H         1 UNK         0.0829 
    117 H117       28.7657   32.3801   -1.0364 H         1 UNK         0.0813 
    118 H118       30.2699   33.2756   -0.8868 H         1 UNK         0.0813 
    119 H119       30.1638   31.6379   -0.2625 H         1 UNK         0.0813 
    120 H120       30.6338   31.4009    2.2295 H         1 UNK         0.3038 
    121 H121       32.0068   33.1415    4.0535 H         1 UNK         0.0769 
    122 H122       33.2761   33.7641    1.9547 H         1 UNK         0.0811 
    123 H123       33.5676   32.0595    1.6194 H         1 UNK         0.0811 
    124 H124       34.3008   32.8276    3.0194 H         1 UNK         0.0811 
    125 H125       33.8761   31.7834    5.0873 H         1 UNK         0.3204 
    126 H126       32.9888   29.1386    5.8168 H         1 UNK         0.0748 
    127 H127       34.3647   30.5222    7.3529 H         1 UNK         0.0771 
    128 H128       35.2061   29.0293    6.9676 H         1 UNK         0.0771 
    129 H129       35.6983   30.5312    6.1981 H         1 UNK         0.0771 
    130 H130       33.1215   27.3822    4.5641 H         1 UNK         0.2980 
    131 H131       33.5518   25.9642    2.9622 H         1 UNK         0.0545 
    132 H132       32.7016   28.8225    0.5232 H         1 UNK         0.3459 
    133 H133       32.5775   28.8779    2.2637 H         1 UNK         0.3459 
    134 H134       35.8150   25.5670    2.0147 H         1 UNK         0.0616 
    135 H135       36.3877   27.0777    2.6535 H         1 UNK         0.0616 
    136 H136       36.1755   23.0657    4.8305 H         1 UNK         0.0634 
    137 H137       36.5742   23.3981    3.1607 H         1 UNK         0.0634 
@<TRIPOS>BOND
     1    1    2 1    
     2    1   72 1    
     3    1   73 1    
     4    1   74 1    
     5    2    3 2    
     6    2    4 am   BACKBONE|DICT|INTERRES
     7    4    5 1    
     8    4   75 1    
     9    5    6 1    
    10    5   35 1    
    11    5   76 1    
    12    6    7 1    
    13    6   77 1    
    14    6   78 1    
    15    7    8 1    
    16    8    9 1    
    17    8   79 1    
    18    8   80 1    
    19    9   10 ar   
    20    9   14 ar   
    21   10   11 ar   
    22   10   81 1    
    23   11   12 ar   
    24   11   71 1    
    25   12   13 ar   
    26   12   82 1    
    27   13   14 ar   
    28   13   15 1    
    29   14   83 1    
    30   15   16 1    
    31   15   84 1    
    32   15   85 1    
    33   16   17 1    
    34   17   18 1    
    35   17   86 1    
    36   17   87 1    
    37   18   19 1    
    38   18   37 1    
    39   18   88 1    
    40   19   20 am   BACKBONE|DICT|INTERRES
    41   19   89 1    
    42   20   21 2    
    43   20   22 1    
    44   22   23 1    
    45   22   24 1    
    46   22   90 1    
    47   23   91 1    
    48   23   92 1    
    49   23   93 1    
    50   24   25 am   BACKBONE|DICT|INTERRES
    51   24   94 1    
    52   25   26 2    
    53   25   27 1    
    54   27   28 1    
    55   27   29 1    
    56   27   95 1    
    57   28   96 1    
    58   28   97 1    
    59   28   98 1    
    60   29   30 am   BACKBONE|DICT|INTERRES
    61   29   99 1    
    62   30   31 2    
    63   30   32 1    
    64   32   33 1    
    65   32   34 1    
    66   32  100 1    
    67   33  101 1    
    68   33  102 1    
    69   33  103 1    
    70   34   35 am   BACKBONE|DICT|INTERRES
    71   34  104 1    
    72   35   36 2    
    73   37   38 2    
    74   37   39 am   BACKBONE|DICT|INTERRES
    75   39   40 1    
    76   39  105 1    
    77   40   41 1    
    78   40   42 1    
    79   40  106 1    
    80   41  107 1    
    81   41  108 1    
    82   41  109 1    
    83   42   43 2    
    84   42   44 am   BACKBONE|DICT|INTERRES
    85   44   45 1    
    86   44  110 1    
    87   45   46 1    
    88   45   47 1    
    89   45  111 1    
    90   46  112 1    
    91   46  113 1    
    92   46  114 1    
    93   47   48 2    
    94   47   49 am   BACKBONE|DICT|INTERRES
    95   49   50 1    
    96   49  115 1    
    97   50   51 1    
    98   50   52 1    
    99   50  116 1    
   100   51  117 1    
   101   51  118 1    
   102   51  119 1    
   103   52   53 2    
   104   52   54 am   BACKBONE|DICT|INTERRES
   105   54   55 1    
   106   54  120 1    
   107   55   56 1    
   108   55   57 1    
   109   55  121 1    
   110   56  122 1    
   111   56  123 1    
   112   56  124 1    
   113   57   58 2    
   114   57   59 am   BACKBONE|DICT|INTERRES
   115   59   60 1    
   116   59  125 1    
   117   60   61 1    
   118   60   62 1    
   119   60  126 1    
   120   61  127 1    
   121   61  128 1    
   122   61  129 1    
   123   62   63 2    
   124   62   64 am   BACKBONE|DICT|INTERRES
   125   64   65 1    
   126   64  130 1    
   127   65   66 1    
   128   65   69 1    
   129   65  131 1    
   130   66   67 am   BACKBONE|DICT|INTERRES
   131   66   68 2    
   132   67  132 1    
   133   67  133 1    
   134   69   70 1    
   135   69  134 1    
   136   69  135 1    
   137   70   71 1    
   138   71  136 1    
   139   71  137 1    
@<TRIPOS>SUBSTRUCTURE
     1 UNK         1 GROUP             0       ****    0 ROOT    
