@<TRIPOS>MOLECULE
3R136
137   139    1
SMALL
USER_CHARGES


@<TRIPOS>ATOM
      1 CA         30.0683   21.8409    6.8648 C.3       0 UNK        -0.1979 
      2 C          29.3483   21.8897    5.5249 C.2       0 UNK         0.4864 
      3 O          28.3880   21.1438    5.3235 O.2       0 UNK        -0.5359 
      4 N          29.8089   22.7490    4.6068 N.am      1 UNK        -0.4318 
      5 CA         29.2116   22.9551    3.2819 C.3       1 UNK         0.0824 
      6 C6         30.1667   23.7207    2.3366 C.3       12 UNK        -0.0944 
      7 S7         31.5869   22.6874    1.8525 S.3       12 UNK        -0.2672 
      8 C8         31.8133   23.1581    0.0987 C.3       12 UNK         0.0333 
      9 C9         32.4887   24.5147   -0.0981 C.ar      12 UNK        -0.0807 
     10 C10        33.5220   24.9282    0.7462 C.ar      12 UNK        -0.0894 
     11 C11        34.1497   26.1614    0.5664 C.ar      12 UNK        -0.0804 
     12 C12        33.7623   26.9784   -0.5021 C.ar      12 UNK        -0.0824 
     13 C13        32.7607   26.5608   -1.3890 C.ar      12 UNK        -0.0762 
     14 C14        32.1219   25.3340   -1.1716 C.ar      12 UNK        -0.0782 
     15 C15        32.4385   27.3867   -2.6321 C.3       12 UNK         0.0230 
     16 S16        31.1394   28.6394   -2.3716 S.3       12 UNK        -0.2608 
     17 C17        29.5927   27.6790   -2.5919 C.3       12 UNK        -0.0989 
     18 CA         28.6115   27.8504   -1.3997 C.3       5 UNK         0.0716 
     19 N          27.3209   27.1950   -1.5752 N.am      5 UNK        -0.4135 
     20 C          26.3724   27.5397   -2.4522 C.2       4 UNK         0.5031 
     21 O          26.5184   28.3940   -3.3273 O.2       4 UNK        -0.5229 
     22 CA         25.0083   26.8382   -2.3051 C.3       4 UNK         0.0329 
     23 CB         25.0214   25.4727   -3.0114 C.3       4 UNK        -0.2001 
     24 N          24.5922   26.6625   -0.9089 N.am      4 UNK        -0.4303 
     25 C          24.3728   27.6569   -0.0340 C.2       3 UNK         0.5044 
     26 O          24.4282   28.8503   -0.3334 O.2       3 UNK        -0.5152 
     27 CA         24.0316   27.2754    1.4228 C.3       3 UNK         0.0319 
     28 CB         22.5490   27.5598    1.7169 C.3       3 UNK        -0.2001 
     29 N          24.3313   25.8883    1.8030 N.am      3 UNK        -0.4354 
     30 C          25.5481   25.3266    1.8101 C.2       2 UNK         0.4964 
     31 O          26.5645   25.9105    1.4361 O.2       2 UNK        -0.5047 
     32 CA         25.6074   23.8541    2.2568 C.3       2 UNK         0.0288 
     33 CB         24.8552   22.9522    1.2599 C.3       2 UNK        -0.2113 
     34 N          26.9759   23.3483    2.3862 N.am      2 UNK        -0.4145 
     35 C          27.8340   23.6488    3.3708 C.2       1 UNK         0.5006 
     36 O          27.5758   24.4144    4.3046 O.2       1 UNK        -0.5103 
     37 C          29.2087   27.2795   -0.1129 C.2       5 UNK         0.5055 
     38 O          29.2609   26.0588    0.0341 O.2       5 UNK        -0.5220 
     39 N          29.6976   28.1727    0.7477 N.am      6 UNK        -0.4450 
     40 CA         30.5349   27.8531    1.8962 C.3       6 UNK         0.0367 
     41 CB         29.6548   27.5660    3.1278 C.3       6 UNK        -0.1929 
     42 C          31.5218   29.0101    2.1074 C.2       6 UNK         0.5070 
     43 O          31.7395   29.4316    3.2458 O.2       6 UNK        -0.5237 
     44 N          32.0452   29.5515    0.9947 N.am      7 UNK        -0.4739 
     45 CA         32.7740   30.8219    0.8941 C.3       7 UNK         0.0276 
     46 CB         34.1664   30.7155    1.5546 C.3       7 UNK        -0.1927 
     47 C          31.9029   31.9817    1.4189 C.2       7 UNK         0.5013 
     48 O          30.7082   32.0166    1.1131 O.2       7 UNK        -0.5193 
     49 N          32.4706   32.8748    2.2386 N.am      8 UNK        -0.4253 
     50 CA         31.7545   33.9469    2.9388 C.3       8 UNK         0.0242 
     51 CB         32.7397   35.0971    3.2228 C.3       8 UNK        -0.2000 
     52 C          31.0587   33.4291    4.2175 C.2       8 UNK         0.4948 
     53 O          31.2228   34.0235    5.2844 O.2       8 UNK        -0.5275 
     54 N          30.3201   32.3148    4.0870 N.am      9 UNK        -0.4246 
     55 CA         29.6571   31.5417    5.1477 C.3       9 UNK         0.0261 
     56 CB         28.4539   32.3219    5.7180 C.3       9 UNK        -0.1959 
     57 C          30.6437   31.0696    6.2367 C.2       9 UNK         0.5033 
     58 O          30.3650   31.2075    7.4300 O.2       9 UNK        -0.5390 
     59 N          31.7927   30.5472    5.7930 N.am      10 UNK        -0.4215 
     60 CA         32.9249   30.1524    6.6311 C.3       10 UNK         0.0240 
     61 CB         34.1772   30.9096    6.1578 C.3       10 UNK        -0.1982 
     62 C          33.1793   28.6392    6.5936 C.2       10 UNK         0.4970 
     63 O          33.6274   28.0891    7.6001 O.2       10 UNK        -0.4916 
     64 N          32.9038   27.9925    5.4536 N.am      11 UNK        -0.4279 
     65 CA         33.1711   26.5621    5.2188 C.3       11 UNK         0.1003 
     66 C          32.0463   25.6109    5.7295 C.2       11 UNK         0.5709 
     67 N          31.0364   26.0928    6.4439 N.am      11 UNK        -0.7358 
     68 O          32.0779   24.4121    5.4629 O.2       11 UNK        -0.4999 
     69 C69        33.5313   26.2654    3.7372 C.3       12 UNK        -0.0954 
     70 S70        34.7144   27.4423    2.9914 S.3       12 UNK        -0.2268 
     71 C71        35.2851   26.5622    1.5014 C.3       12 UNK         0.0203 
     72 H72        29.4084   22.1915    7.6578 H         1 UNK         0.0888 
     73 H73        30.3650   20.8179    7.0946 H         1 UNK         0.0888 
     74 H74        30.9650   22.4593    6.8703 H         1 UNK         0.0888 
     75 H75        30.6083   23.3364    4.8295 H         1 UNK         0.3017 
     76 H76        29.0372   21.9647    2.8545 H         1 UNK         0.0873 
     77 H77        30.5282   24.6424    2.7956 H         1 UNK         0.0745 
     78 H78        29.6407   24.0142    1.4287 H         1 UNK         0.0745 
     79 H79        30.8466   23.1319   -0.4067 H         1 UNK         0.0705 
     80 H80        32.4317   22.3994   -0.3822 H         1 UNK         0.0705 
     81 H81        33.8448   24.2842    1.5515 H         1 UNK         0.1334 
     82 H82        34.2658   27.9217   -0.6639 H         1 UNK         0.1417 
     83 H83        31.3492   25.0044   -1.8521 H         1 UNK         0.1562 
     84 H84        32.1569   26.7339   -3.4597 H         1 UNK         0.0748 
     85 H85        33.3422   27.9013   -2.9622 H         1 UNK         0.0748 
     86 H86        29.8177   26.6239   -2.7545 H         1 UNK         0.0940 
     87 H87        29.1278   28.0266   -3.5149 H         1 UNK         0.0940 
     88 H88        28.4126   28.9151   -1.2579 H         1 UNK         0.0703 
     89 H89        27.1195   26.4924   -0.8719 H         1 UNK         0.3081 
     90 H90        24.2612   27.4675   -2.7935 H         1 UNK         0.0719 
     91 H91        25.3115   25.5784   -4.0579 H         1 UNK         0.0809 
     92 H92        25.7257   24.7817   -2.5463 H         1 UNK         0.0809 
     93 H93        24.0351   25.0084   -2.9966 H         1 UNK         0.0809 
     94 H94        24.5112   25.7147   -0.5725 H         1 UNK         0.2990 
     95 H95        24.6343   27.9222    2.0638 H         1 UNK         0.0690 
     96 H96        22.3142   27.4014    2.7697 H         1 UNK         0.0788 
     97 H97        21.8911   26.9224    1.1246 H         1 UNK         0.0788 
     98 H98        22.2943   28.5951    1.4848 H         1 UNK         0.0788 
     99 H99        23.5442   25.3323    2.1058 H         1 UNK         0.2993 
    100 H100       25.1250   23.7823    3.2343 H         1 UNK         0.0949 
    101 H101       23.8035   23.2297    1.1803 H         1 UNK         0.0767 
    102 H102       25.2851   23.0110    0.2588 H         1 UNK         0.0767 
    103 H103       24.8823   21.9082    1.5735 H         1 UNK         0.0767 
    104 H104       27.2943   22.7472    1.6406 H         1 UNK         0.3013 
    105 H105       29.6081   29.1588    0.5388 H         1 UNK         0.3121 
    106 H106       31.1266   26.9666    1.6618 H         1 UNK         0.0774 
    107 H107       30.2616   27.3071    3.9937 H         1 UNK         0.0815 
    108 H108       29.0487   28.4307    3.3979 H         1 UNK         0.0815 
    109 H109       28.9787   26.7302    2.9450 H         1 UNK         0.0815 
    110 H110       31.8089   29.1209    0.1103 H         1 UNK         0.2987 
    111 H111       32.9223   31.0119   -0.1701 H         1 UNK         0.0949 
    112 H112       34.7621   31.6119    1.3792 H         1 UNK         0.0806 
    113 H113       34.7289   29.8805    1.1376 H         1 UNK         0.0806 
    114 H114       34.1015   30.5601    2.6318 H         1 UNK         0.0806 
    115 H115       33.4447   32.7548    2.4756 H         1 UNK         0.3010 
    116 H116       30.9705   34.3380    2.2864 H         1 UNK         0.0829 
    117 H117       33.5418   34.7856    3.8933 H         1 UNK         0.0813 
    118 H118       33.1942   35.4668    2.3035 H         1 UNK         0.0813 
    119 H119       32.2318   35.9412    3.6913 H         1 UNK         0.0813 
    120 H120       30.2640   31.9198    3.1541 H         1 UNK         0.3038 
    121 H121       29.2714   30.6376    4.6745 H         1 UNK         0.0769 
    122 H122       27.8953   31.7130    6.4299 H         1 UNK         0.0811 
    123 H123       27.7609   32.6144    4.9293 H         1 UNK         0.0811 
    124 H124       28.7688   33.2259    6.2404 H         1 UNK         0.0811 
    125 H125       31.8813   30.3831    4.7910 H         1 UNK         0.3204 
    126 H126       32.7389   30.4256    7.6719 H         1 UNK         0.0748 
    127 H127       35.0406   30.6638    6.7776 H         1 UNK         0.0771 
    128 H128       34.4337   30.6624    5.1268 H         1 UNK         0.0771 
    129 H129       34.0316   31.9886    6.2169 H         1 UNK         0.0771 
    130 H130       32.5338   28.5068    4.6598 H         1 UNK         0.2980 
    131 H131       34.0532   26.2948    5.8033 H         1 UNK         0.0545 
    132 H132       31.0042   27.0701    6.6824 H         1 UNK         0.3459 
    133 H133       30.3129   25.4710    6.7655 H         1 UNK         0.3459 
    134 H134       33.9586   25.2643    3.6638 H         1 UNK         0.0616 
    135 H135       32.6312   26.2567    3.1264 H         1 UNK         0.0616 
    136 H136       35.8475   25.6785    1.8070 H         1 UNK         0.0634 
    137 H137       35.9924   27.2012    0.9712 H         1 UNK         0.0634 
@<TRIPOS>BOND
     1    1    2 1    
     2    1   72 1    
     3    1   73 1    
     4    1   74 1    
     5    2    3 2    
     6    2    4 am   BACKBONE|DICT|INTERRES
     7    4    5 1    
     8    4   75 1    
     9    5    6 1    
    10    5   35 1    
    11    5   76 1    
    12    6    7 1    
    13    6   77 1    
    14    6   78 1    
    15    7    8 1    
    16    8    9 1    
    17    8   79 1    
    18    8   80 1    
    19    9   10 ar   
    20    9   14 ar   
    21   10   11 ar   
    22   10   81 1    
    23   11   12 ar   
    24   11   71 1    
    25   12   13 ar   
    26   12   82 1    
    27   13   14 ar   
    28   13   15 1    
    29   14   83 1    
    30   15   16 1    
    31   15   84 1    
    32   15   85 1    
    33   16   17 1    
    34   17   18 1    
    35   17   86 1    
    36   17   87 1    
    37   18   19 1    
    38   18   37 1    
    39   18   88 1    
    40   19   20 am   BACKBONE|DICT|INTERRES
    41   19   89 1    
    42   20   21 2    
    43   20   22 1    
    44   22   23 1    
    45   22   24 1    
    46   22   90 1    
    47   23   91 1    
    48   23   92 1    
    49   23   93 1    
    50   24   25 am   BACKBONE|DICT|INTERRES
    51   24   94 1    
    52   25   26 2    
    53   25   27 1    
    54   27   28 1    
    55   27   29 1    
    56   27   95 1    
    57   28   96 1    
    58   28   97 1    
    59   28   98 1    
    60   29   30 am   BACKBONE|DICT|INTERRES
    61   29   99 1    
    62   30   31 2    
    63   30   32 1    
    64   32   33 1    
    65   32   34 1    
    66   32  100 1    
    67   33  101 1    
    68   33  102 1    
    69   33  103 1    
    70   34   35 am   BACKBONE|DICT|INTERRES
    71   34  104 1    
    72   35   36 2    
    73   37   38 2    
    74   37   39 am   BACKBONE|DICT|INTERRES
    75   39   40 1    
    76   39  105 1    
    77   40   41 1    
    78   40   42 1    
    79   40  106 1    
    80   41  107 1    
    81   41  108 1    
    82   41  109 1    
    83   42   43 2    
    84   42   44 am   BACKBONE|DICT|INTERRES
    85   44   45 1    
    86   44  110 1    
    87   45   46 1    
    88   45   47 1    
    89   45  111 1    
    90   46  112 1    
    91   46  113 1    
    92   46  114 1    
    93   47   48 2    
    94   47   49 am   BACKBONE|DICT|INTERRES
    95   49   50 1    
    96   49  115 1    
    97   50   51 1    
    98   50   52 1    
    99   50  116 1    
   100   51  117 1    
   101   51  118 1    
   102   51  119 1    
   103   52   53 2    
   104   52   54 am   BACKBONE|DICT|INTERRES
   105   54   55 1    
   106   54  120 1    
   107   55   56 1    
   108   55   57 1    
   109   55  121 1    
   110   56  122 1    
   111   56  123 1    
   112   56  124 1    
   113   57   58 2    
   114   57   59 am   BACKBONE|DICT|INTERRES
   115   59   60 1    
   116   59  125 1    
   117   60   61 1    
   118   60   62 1    
   119   60  126 1    
   120   61  127 1    
   121   61  128 1    
   122   61  129 1    
   123   62   63 2    
   124   62   64 am   BACKBONE|DICT|INTERRES
   125   64   65 1    
   126   64  130 1    
   127   65   66 1    
   128   65   69 1    
   129   65  131 1    
   130   66   67 am   BACKBONE|DICT|INTERRES
   131   66   68 2    
   132   67  132 1    
   133   67  133 1    
   134   69   70 1    
   135   69  134 1    
   136   69  135 1    
   137   70   71 1    
   138   71  136 1    
   139   71  137 1    
@<TRIPOS>SUBSTRUCTURE
     1 UNK         1 GROUP             0       ****    0 ROOT    
