@<TRIPOS>MOLECULE
3R136
137   139    1
SMALL
USER_CHARGES


@<TRIPOS>ATOM
      1 CA         29.9892   28.3601    0.8439 C.3       0 UNK        -0.1979 
      2 C          29.8675   26.8522    0.6953 C.2       0 UNK         0.4864 
      3 O          28.7829   26.3646    0.3680 O.2       0 UNK        -0.5359 
      4 N          30.9591   26.1134    0.9435 N.am      1 UNK        -0.4318 
      5 CA         31.0047   24.6503    0.8992 C.3       1 UNK         0.0824 
      6 C6         32.3475   24.1042    1.4440 C.3       12 UNK        -0.0944 
      7 S7         32.2329   22.3503    1.9351 S.3       12 UNK        -0.2672 
      8 C8         32.0293   22.4748    3.7415 C.3       12 UNK         0.0333 
      9 C9         30.7975   23.2829    4.1267 C.ar      12 UNK        -0.0807 
     10 C10        30.9382   24.5262    4.7508 C.ar      12 UNK        -0.0894 
     11 C11        29.8128   25.2792    5.1122 C.ar      12 UNK        -0.0804 
     12 C12        28.5430   24.7587    4.8451 C.ar      12 UNK        -0.0824 
     13 C13        28.3847   23.5282    4.2002 C.ar      12 UNK        -0.0762 
     14 C14        29.5187   22.7893    3.8534 C.ar      12 UNK        -0.0782 
     15 C15        26.9941   22.9856    3.8929 C.3       12 UNK         0.0230 
     16 S16        26.2453   23.7831    2.4310 S.3       12 UNK        -0.2608 
     17 C17        25.5847   25.3263    3.1504 C.3       12 UNK        -0.0989 
     18 CA         26.4136   26.5658    2.7064 C.3       5 UNK         0.0716 
     19 N          26.1681   26.9642    1.3122 N.am      5 UNK        -0.4135 
     20 C          25.0274   27.4694    0.8155 C.2       4 UNK         0.5031 
     21 O          23.9952   27.6042    1.4739 O.2       4 UNK        -0.5229 
     22 CA         25.0362   27.9692   -0.6408 C.3       4 UNK         0.0329 
     23 CB         25.1520   29.5031   -0.6711 C.3       4 UNK        -0.2001 
     24 N          26.0978   27.4002   -1.4734 N.am      4 UNK        -0.4303 
     25 C          26.1241   26.1392   -1.9222 C.2       3 UNK         0.5044 
     26 O          25.2629   25.3007   -1.6514 O.2       3 UNK        -0.5152 
     27 CA         27.2944   25.7374   -2.8310 C.3       3 UNK         0.0319 
     28 CB         28.2612   26.8859   -3.1928 C.3       3 UNK        -0.2001 
     29 N          28.0342   24.6781   -2.1588 N.am      3 UNK        -0.4354 
     30 C          28.4755   23.5482   -2.7250 C.2       2 UNK         0.4964 
     31 O          28.3079   23.2716   -3.9144 O.2       2 UNK        -0.5047 
     32 CA         29.2161   22.5489   -1.8091 C.3       2 UNK         0.0288 
     33 CB         30.2964   21.7400   -2.5597 C.3       2 UNK        -0.2113 
     34 N          29.7682   23.1583   -0.5909 N.am      2 UNK        -0.4145 
     35 C          30.7030   24.1189   -0.5152 C.2       1 UNK         0.5006 
     36 O          31.2997   24.5948   -1.4848 O.2       1 UNK        -0.5103 
     37 C          26.3403   27.7531    3.6991 C.2       5 UNK         0.5055 
     38 O          26.1550   27.5424    4.8993 O.2       5 UNK        -0.5220 
     39 N          26.5293   28.9807    3.1958 N.am      6 UNK        -0.4450 
     40 CA         26.6837   30.1952    3.9931 C.3       6 UNK         0.0367 
     41 CB         26.3957   31.4146    3.1023 C.3       6 UNK        -0.1929 
     42 C          28.1090   30.2736    4.5568 C.2       6 UNK         0.5070 
     43 O          29.0451   29.8015    3.9073 O.2       6 UNK        -0.5237 
     44 N          28.2649   30.9159    5.7207 N.am      7 UNK        -0.4739 
     45 CA         29.5392   31.1107    6.4264 C.3       7 UNK         0.0276 
     46 CB         29.2462   31.3964    7.9111 C.3       7 UNK        -0.1927 
     47 C          30.4410   32.1870    5.7797 C.2       7 UNK         0.5013 
     48 O          30.9378   33.0802    6.4690 O.2       7 UNK        -0.5193 
     49 N          30.6257   32.0837    4.4606 N.am      8 UNK        -0.4253 
     50 CA         31.5465   32.8786    3.6509 C.3       8 UNK         0.0242 
     51 CB         31.0039   32.9078    2.2097 C.3       8 UNK        -0.2000 
     52 C          32.9598   32.2726    3.6944 C.2       8 UNK         0.4948 
     53 O          33.1581   31.2040    4.2749 O.2       8 UNK        -0.5275 
     54 N          33.9186   32.9194    3.0163 N.am      9 UNK        -0.4246 
     55 CA         35.3024   32.4408    2.8614 C.3       9 UNK         0.0261 
     56 CB         36.1160   33.4877    2.0831 C.3       9 UNK        -0.1959 
     57 C          35.4291   31.0541    2.1927 C.2       9 UNK         0.5033 
     58 O          36.4268   30.3660    2.4097 O.2       9 UNK        -0.5390 
     59 N          34.4093   30.6631    1.4164 N.am      10 UNK        -0.4215 
     60 CA         34.2589   29.3427    0.8052 C.3       10 UNK         0.0240 
     61 CB         33.3102   29.4654   -0.4002 C.3       10 UNK        -0.1982 
     62 C          33.7753   28.2459    1.7774 C.2       10 UNK         0.4970 
     63 O          33.7190   27.0874    1.3653 O.2       10 UNK        -0.4916 
     64 N          33.3964   28.5906    3.0168 N.am      11 UNK        -0.4279 
     65 CA         33.0686   27.6243    4.0734 C.3       11 UNK         0.1003 
     66 C          34.3767   27.0195    4.6530 C.2       11 UNK         0.5709 
     67 N          34.6799   25.7646    4.3482 N.am      11 UNK        -0.7358 
     68 O          35.1141   27.6798    5.3816 O.2       11 UNK        -0.4999 
     69 C69        32.1655   28.2752    5.1537 C.3       12 UNK        -0.0954 
     70 S70        31.5430   27.1253    6.4295 S.3       12 UNK        -0.2268 
     71 C71        29.8985   26.6514    5.7877 C.3       12 UNK         0.0203 
     72 H72        30.8277   28.6364    1.4812 H         1 UNK         0.0888 
     73 H73        30.1172   28.8252   -0.1326 H         1 UNK         0.0888 
     74 H74        29.0869   28.7665    1.2993 H         1 UNK         0.0888 
     75 H75        31.8500   26.5633    1.1279 H         1 UNK         0.3017 
     76 H76        30.2049   24.3192    1.5641 H         1 UNK         0.0873 
     77 H77        32.6630   24.6816    2.3124 H         1 UNK         0.0745 
     78 H78        33.1473   24.2201    0.7096 H         1 UNK         0.0745 
     79 H79        32.9330   22.9066    4.1745 H         1 UNK         0.0705 
     80 H80        31.9430   21.4698    4.1570 H         1 UNK         0.0705 
     81 H81        31.9317   24.8942    4.9560 H         1 UNK         0.1334 
     82 H82        27.6705   25.3239    5.1386 H         1 UNK         0.1417 
     83 H83        29.4110   21.8310    3.3632 H         1 UNK         0.1562 
     84 H84        26.3451   23.0995    4.7623 H         1 UNK         0.0748 
     85 H85        27.0470   21.9122    3.7041 H         1 UNK         0.0748 
     86 H86        25.5573   25.2157    4.2344 H         1 UNK         0.0940 
     87 H87        24.5400   25.4292    2.8556 H         1 UNK         0.0940 
     88 H88        27.4657   26.2803    2.7338 H         1 UNK         0.0703 
     89 H89        26.9720   26.8516    0.6990 H         1 UNK         0.3081 
     90 H90        24.0759   27.6924   -1.0816 H         1 UNK         0.0719 
     91 H91        24.3631   29.9676   -0.0775 H         1 UNK         0.0809 
     92 H92        26.1062   29.8469   -0.2699 H         1 UNK         0.0809 
     93 H93        25.0565   29.8880   -1.6866 H         1 UNK         0.0809 
     94 H94        26.8519   28.0170   -1.7383 H         1 UNK         0.2990 
     95 H95        26.8491   25.3603   -3.7539 H         1 UNK         0.0690 
     96 H96        28.7588   27.2971   -2.3137 H         1 UNK         0.0788 
     97 H97        27.7422   27.6985   -3.7030 H         1 UNK         0.0788 
     98 H98        29.0404   26.5346   -3.8698 H         1 UNK         0.0788 
     99 H99        28.2073   24.8339   -1.1723 H         1 UNK         0.2993 
    100 H100       28.4554   21.8428   -1.4724 H         1 UNK         0.0949 
    101 H101       29.8573   21.1565   -3.3698 H         1 UNK         0.0767 
    102 H102       31.0543   22.3877   -3.0013 H         1 UNK         0.0767 
    103 H103       30.8004   21.0388   -1.8944 H         1 UNK         0.0767 
    104 H104       29.3471   22.8435    0.2725 H         1 UNK         0.3013 
    105 H105       26.7250   29.0635    2.2107 H         1 UNK         0.3121 
    106 H106       25.9682   30.1778    4.8182 H         1 UNK         0.0774 
    107 H107       26.4692   32.3415    3.6727 H         1 UNK         0.0815 
    108 H108       27.1013   31.4870    2.2734 H         1 UNK         0.0815 
    109 H109       25.3897   31.3718    2.6842 H         1 UNK         0.0815 
    110 H110       27.4491   31.3172    6.1615 H         1 UNK         0.2987 
    111 H111       30.0984   30.1735    6.3802 H         1 UNK         0.0949 
    112 H112       28.6628   30.5937    8.3625 H         1 UNK         0.0806 
    113 H113       30.1710   31.4798    8.4839 H         1 UNK         0.0806 
    114 H114       28.6956   32.3287    8.0418 H         1 UNK         0.0806 
    115 H115       30.1982   31.2788    4.0093 H         1 UNK         0.3010 
    116 H116       31.5922   33.8971    4.0421 H         1 UNK         0.0829 
    117 H117       29.9888   33.3049    2.1806 H         1 UNK         0.0813 
    118 H118       31.6105   33.5432    1.5636 H         1 UNK         0.0813 
    119 H119       30.9811   31.9114    1.7656 H         1 UNK         0.0813 
    120 H120       33.6900   33.7931    2.5632 H         1 UNK         0.3038 
    121 H121       35.7292   32.3513    3.8626 H         1 UNK         0.0769 
    122 H122       36.1231   34.4491    2.5972 H         1 UNK         0.0811 
    123 H123       37.1554   33.1736    1.9761 H         1 UNK         0.0811 
    124 H124       35.7186   33.6444    1.0795 H         1 UNK         0.0811 
    125 H125       33.6452   31.3094    1.2890 H         1 UNK         0.3204 
    126 H126       35.2341   29.0209    0.4337 H         1 UNK         0.0748 
    127 H127       33.1344   28.4965   -0.8704 H         1 UNK         0.0771 
    128 H128       32.3413   29.8733   -0.1133 H         1 UNK         0.0771 
    129 H129       33.7309   30.1187   -1.1650 H         1 UNK         0.0771 
    130 H130       33.4620   29.5582    3.3204 H         1 UNK         0.2980 
    131 H131       32.4838   26.8226    3.6197 H         1 UNK         0.0545 
    132 H132       34.1218   25.2362    3.6993 H         1 UNK         0.3459 
    133 H133       35.5256   25.3649    4.7236 H         1 UNK         0.3459 
    134 H134       32.7101   29.0645    5.6736 H         1 UNK         0.0616 
    135 H135       31.3205   28.7698    4.6764 H         1 UNK         0.0616 
    136 H136       29.5354   27.4084    5.0926 H         1 UNK         0.0634 
    137 H137       29.2081   26.6646    6.6324 H         1 UNK         0.0634 
@<TRIPOS>BOND
     1    1    2 1    
     2    1   72 1    
     3    1   73 1    
     4    1   74 1    
     5    2    3 2    
     6    2    4 am   BACKBONE|DICT|INTERRES
     7    4    5 1    
     8    4   75 1    
     9    5    6 1    
    10    5   35 1    
    11    5   76 1    
    12    6    7 1    
    13    6   77 1    
    14    6   78 1    
    15    7    8 1    
    16    8    9 1    
    17    8   79 1    
    18    8   80 1    
    19    9   10 ar   
    20    9   14 ar   
    21   10   11 ar   
    22   10   81 1    
    23   11   12 ar   
    24   11   71 1    
    25   12   13 ar   
    26   12   82 1    
    27   13   14 ar   
    28   13   15 1    
    29   14   83 1    
    30   15   16 1    
    31   15   84 1    
    32   15   85 1    
    33   16   17 1    
    34   17   18 1    
    35   17   86 1    
    36   17   87 1    
    37   18   19 1    
    38   18   37 1    
    39   18   88 1    
    40   19   20 am   BACKBONE|DICT|INTERRES
    41   19   89 1    
    42   20   21 2    
    43   20   22 1    
    44   22   23 1    
    45   22   24 1    
    46   22   90 1    
    47   23   91 1    
    48   23   92 1    
    49   23   93 1    
    50   24   25 am   BACKBONE|DICT|INTERRES
    51   24   94 1    
    52   25   26 2    
    53   25   27 1    
    54   27   28 1    
    55   27   29 1    
    56   27   95 1    
    57   28   96 1    
    58   28   97 1    
    59   28   98 1    
    60   29   30 am   BACKBONE|DICT|INTERRES
    61   29   99 1    
    62   30   31 2    
    63   30   32 1    
    64   32   33 1    
    65   32   34 1    
    66   32  100 1    
    67   33  101 1    
    68   33  102 1    
    69   33  103 1    
    70   34   35 am   BACKBONE|DICT|INTERRES
    71   34  104 1    
    72   35   36 2    
    73   37   38 2    
    74   37   39 am   BACKBONE|DICT|INTERRES
    75   39   40 1    
    76   39  105 1    
    77   40   41 1    
    78   40   42 1    
    79   40  106 1    
    80   41  107 1    
    81   41  108 1    
    82   41  109 1    
    83   42   43 2    
    84   42   44 am   BACKBONE|DICT|INTERRES
    85   44   45 1    
    86   44  110 1    
    87   45   46 1    
    88   45   47 1    
    89   45  111 1    
    90   46  112 1    
    91   46  113 1    
    92   46  114 1    
    93   47   48 2    
    94   47   49 am   BACKBONE|DICT|INTERRES
    95   49   50 1    
    96   49  115 1    
    97   50   51 1    
    98   50   52 1    
    99   50  116 1    
   100   51  117 1    
   101   51  118 1    
   102   51  119 1    
   103   52   53 2    
   104   52   54 am   BACKBONE|DICT|INTERRES
   105   54   55 1    
   106   54  120 1    
   107   55   56 1    
   108   55   57 1    
   109   55  121 1    
   110   56  122 1    
   111   56  123 1    
   112   56  124 1    
   113   57   58 2    
   114   57   59 am   BACKBONE|DICT|INTERRES
   115   59   60 1    
   116   59  125 1    
   117   60   61 1    
   118   60   62 1    
   119   60  126 1    
   120   61  127 1    
   121   61  128 1    
   122   61  129 1    
   123   62   63 2    
   124   62   64 am   BACKBONE|DICT|INTERRES
   125   64   65 1    
   126   64  130 1    
   127   65   66 1    
   128   65   69 1    
   129   65  131 1    
   130   66   67 am   BACKBONE|DICT|INTERRES
   131   66   68 2    
   132   67  132 1    
   133   67  133 1    
   134   69   70 1    
   135   69  134 1    
   136   69  135 1    
   137   70   71 1    
   138   71  136 1    
   139   71  137 1    
@<TRIPOS>SUBSTRUCTURE
     1 UNK         1 GROUP             0       ****    0 ROOT    
