@<TRIPOS>MOLECULE
3R136
137   139    1
SMALL
USER_CHARGES


@<TRIPOS>ATOM
      1 CA         25.4192   26.4829    3.3333 C.3       0 UNK        -0.1979 
      2 C          26.2389   25.2042    3.2761 C.2       0 UNK         0.4864 
      3 O          25.7100   24.1194    3.5264 O.2       0 UNK        -0.5359 
      4 N          27.5350   25.3275    2.9631 N.am      1 UNK        -0.4318 
      5 CA         28.4630   24.2063    2.7931 C.3       1 UNK         0.0824 
      6 C6         29.9325   24.6810    2.9092 C.3       12 UNK        -0.0944 
      7 S7         31.1362   23.3167    3.0981 S.3       12 UNK        -0.2672 
      8 C8         31.8759   23.1720    1.4326 C.3       12 UNK         0.0333 
      9 C9         32.4692   24.4870    0.9461 C.ar      12 UNK        -0.0807 
     10 C10        33.6254   25.0002    1.5377 C.ar      12 UNK        -0.0894 
     11 C11        34.1262   26.2488    1.1547 C.ar      12 UNK        -0.0804 
     12 C12        33.4667   26.9721    0.1547 C.ar      12 UNK        -0.0824 
     13 C13        32.3193   26.4630   -0.4641 C.ar      12 UNK        -0.0762 
     14 C14        31.8398   25.2070   -0.0732 C.ar      12 UNK        -0.0782 
     15 C15        31.6248   27.2897   -1.5495 C.3       12 UNK         0.0230 
     16 S16        29.8110   27.0717   -1.6516 S.3       12 UNK        -0.2608 
     17 C17        29.2762   27.4403    0.0537 C.3       12 UNK        -0.0989 
     18 CA         28.1255   28.4766    0.1189 C.3       5 UNK         0.0716 
     19 N          26.9295   27.9587   -0.5404 N.am      5 UNK        -0.4135 
     20 C          25.9054   28.6570   -1.0396 C.2       4 UNK         0.5031 
     21 O          25.8636   29.8891   -1.0152 O.2       4 UNK        -0.5229 
     22 CA         24.7288   27.8527   -1.6472 C.3       4 UNK         0.0329 
     23 CB         24.0159   28.6358   -2.7652 C.3       4 UNK        -0.2001 
     24 N          25.0936   26.5218   -2.1603 N.am      4 UNK        -0.4303 
     25 C          25.4417   25.4605   -1.4195 C.2       3 UNK         0.5044 
     26 O          25.4769   25.4932   -0.1871 O.2       3 UNK        -0.5152 
     27 CA         25.8801   24.1927   -2.1763 C.3       3 UNK         0.0319 
     28 CB         26.8648   24.5135   -3.3175 C.3       3 UNK        -0.2001 
     29 N          26.5425   23.2759   -1.2519 N.am      3 UNK        -0.4354 
     30 C          25.9703   22.2611   -0.5993 C.2       2 UNK         0.4964 
     31 O          24.8171   21.8760   -0.7976 O.2       2 UNK        -0.5047 
     32 CA         26.8332   21.5554    0.4634 C.3       2 UNK         0.0288 
     33 CB         27.9969   20.7717   -0.1783 C.3       2 UNK        -0.2113 
     34 N          27.3076   22.4419    1.5378 N.am      2 UNK        -0.4145 
     35 C          28.1636   23.4736    1.4668 C.2       1 UNK         0.5006 
     36 O          28.6862   23.8648    0.4207 O.2       1 UNK        -0.5103 
     37 C          27.7772   28.8505    1.5732 C.2       5 UNK         0.5055 
     38 O          28.2385   28.1834    2.5003 O.2       5 UNK        -0.5220 
     39 N          26.9192   29.8649    1.7443 N.am      6 UNK        -0.4450 
     40 CA         26.4344   30.3386    3.0417 C.3       6 UNK         0.0367 
     41 CB         25.1637   31.1843    2.8488 C.3       6 UNK        -0.1929 
     42 C          27.5229   31.1044    3.8058 C.2       6 UNK         0.5070 
     43 O          27.9561   30.6553    4.8659 O.2       6 UNK        -0.5237 
     44 N          27.9688   32.2331    3.2374 N.am      7 UNK        -0.4739 
     45 CA         29.0551   33.0501    3.7896 C.3       7 UNK         0.0276 
     46 CB         29.0065   34.4560    3.1706 C.3       7 UNK        -0.1927 
     47 C          30.4340   32.4091    3.5670 C.2       7 UNK         0.5013 
     48 O          31.3157   32.5429    4.4158 O.2       7 UNK        -0.5193 
     49 N          30.5851   31.6993    2.4394 N.am      8 UNK        -0.4253 
     50 CA         31.8144   31.0125    2.0359 C.3       8 UNK         0.0242 
     51 CB         31.6966   30.5719    0.5698 C.3       8 UNK        -0.2000 
     52 C          32.2145   29.8381    2.9482 C.2       8 UNK         0.4948 
     53 O          33.3882   29.4729    2.9508 O.2       8 UNK        -0.5275 
     54 N          31.2725   29.3183    3.7536 N.am      9 UNK        -0.4246 
     55 CA         31.4974   28.3059    4.7947 C.3       9 UNK         0.0261 
     56 CB         30.1451   27.8840    5.3923 C.3       9 UNK        -0.1959 
     57 C          32.4577   28.7416    5.9221 C.2       9 UNK         0.5033 
     58 O          32.8974   27.8877    6.6947 O.2       9 UNK        -0.5390 
     59 N          32.8016   30.0386    5.9875 N.am      10 UNK        -0.4215 
     60 CA         33.8098   30.6282    6.8770 C.3       10 UNK         0.0240 
     61 CB         33.8479   32.1478    6.6475 C.3       10 UNK        -0.1982 
     62 C          35.2265   30.0273    6.7472 C.2       10 UNK         0.4970 
     63 O          36.0433   30.2390    7.6446 O.2       10 UNK        -0.4916 
     64 N          35.4898   29.2744    5.6694 N.am      11 UNK        -0.4279 
     65 CA         36.6542   28.3889    5.5193 C.3       11 UNK         0.1003 
     66 C          36.7705   27.2647    6.5951 C.2       11 UNK         0.5709 
     67 N          35.6943   26.8756    7.2718 N.am      11 UNK        -0.7358 
     68 O          37.8612   26.7464    6.8228 O.2       11 UNK        -0.4999 
     69 C69        36.7339   27.8045    4.0832 C.3       12 UNK        -0.0954 
     70 S70        35.2714   26.8065    3.6305 S.3       12 UNK        -0.2268 
     71 C71        35.3778   26.8204    1.8129 C.3       12 UNK         0.0203 
     72 H72        24.3892   26.2712    3.6188 H         1 UNK         0.0888 
     73 H73        25.8413   27.1690    4.0664 H         1 UNK         0.0888 
     74 H74        25.4070   26.9717    2.3594 H         1 UNK         0.0888 
     75 H75        27.9082   26.2548    2.7786 H         1 UNK         0.3017 
     76 H76        28.2882   23.5057    3.6129 H         1 UNK         0.0873 
     77 H77        30.0386   25.2963    3.8030 H         1 UNK         0.0745 
     78 H78        30.2041   25.3360    2.0838 H         1 UNK         0.0745 
     79 H79        32.6594   22.4137    1.4611 H         1 UNK         0.0705 
     80 H80        31.1237   22.8024    0.7347 H         1 UNK         0.0705 
     81 H81        34.1169   24.4403    2.3216 H         1 UNK         0.1334 
     82 H82        33.8498   27.9388   -0.1422 H         1 UNK         0.1417 
     83 H83        30.9508   24.8005   -0.5354 H         1 UNK         0.1562 
     84 H84        32.0581   27.0239   -2.5144 H         1 UNK         0.0748 
     85 H85        31.8297   28.3506   -1.4047 H         1 UNK         0.0748 
     86 H86        30.1333   27.7720    0.6413 H         1 UNK         0.0940 
     87 H87        28.9588   26.4996    0.5036 H         1 UNK         0.0940 
     88 H88        28.4487   29.3867   -0.3906 H         1 UNK         0.0703 
     89 H89        26.8184   26.9522   -0.5174 H         1 UNK         0.3081 
     90 H90        24.0109   27.7078   -0.8372 H         1 UNK         0.0719 
     91 H91        23.1580   28.0854   -3.1521 H         1 UNK         0.0809 
     92 H92        24.6866   28.8452   -3.5994 H         1 UNK         0.0809 
     93 H93        23.6408   29.5929   -2.4001 H         1 UNK         0.0809 
     94 H94        25.1216   26.4286   -3.1655 H         1 UNK         0.2990 
     95 H95        24.9889   23.7237   -2.5978 H         1 UNK         0.0690 
     96 H96        27.2378   23.6005   -3.7824 H         1 UNK         0.0788 
     97 H97        27.7276   25.0775   -2.9595 H         1 UNK         0.0788 
     98 H98        26.3920   25.0975   -4.1075 H         1 UNK         0.0788 
     99 H99        27.4587   23.5630   -0.9131 H         1 UNK         0.2993 
    100 H100       26.1844   20.8260    0.9514 H         1 UNK         0.0949 
    101 H101       28.5468   20.1998    0.5692 H         1 UNK         0.0767 
    102 H102       27.6251   20.0630   -0.9195 H         1 UNK         0.0767 
    103 H103       28.7067   21.4262   -0.6851 H         1 UNK         0.0767 
    104 H104       26.8616   22.2905    2.4338 H         1 UNK         0.3013 
    105 H105       26.5373   30.3037    0.9125 H         1 UNK         0.3121 
    106 H106       26.1637   29.4712    3.6459 H         1 UNK         0.0774 
    107 H107       24.8037   31.5705    3.8035 H         1 UNK         0.0815 
    108 H108       25.3306   32.0387    2.1922 H         1 UNK         0.0815 
    109 H109       24.3581   30.5888    2.4187 H         1 UNK         0.0815 
    110 H110       27.5515   32.5428    2.3713 H         1 UNK         0.2987 
    111 H111       28.9070   33.1467    4.8679 H         1 UNK         0.0949 
    112 H112       29.1406   34.4298    2.0884 H         1 UNK         0.0806 
    113 H113       28.0567   34.9486    3.3799 H         1 UNK         0.0806 
    114 H114       29.7947   35.0889    3.5811 H         1 UNK         0.0806 
    115 H115       29.8023   31.6496    1.8051 H         1 UNK         0.3010 
    116 H116       32.6273   31.7395    2.0982 H         1 UNK         0.0829 
    117 H117       31.5817   31.4301   -0.0926 H         1 UNK         0.0813 
    118 H118       32.5931   30.0396    0.2505 H         1 UNK         0.0813 
    119 H119       30.8457   29.9135    0.4115 H         1 UNK         0.0813 
    120 H120       30.3306   29.6784    3.6842 H         1 UNK         0.3038 
    121 H121       31.9474   27.4361    4.3107 H         1 UNK         0.0769 
    122 H122       30.2747   27.1026    6.1424 H         1 UNK         0.0811 
    123 H123       29.4762   27.4864    4.6316 H         1 UNK         0.0811 
    124 H124       29.6407   28.7208    5.8767 H         1 UNK         0.0811 
    125 H125       32.3709   30.6735    5.3264 H         1 UNK         0.3204 
    126 H126       33.4818   30.4439    7.9018 H         1 UNK         0.0748 
    127 H127       34.5689   32.6290    7.3100 H         1 UNK         0.0771 
    128 H128       34.1303   32.3924    5.6225 H         1 UNK         0.0771 
    129 H129       32.8769   32.6033    6.8438 H         1 UNK         0.0771 
    130 H130       34.7695   29.1624    4.9679 H         1 UNK         0.2980 
    131 H131       37.5345   29.0194    5.6562 H         1 UNK         0.0545 
    132 H132       34.7825   27.2714    7.0666 H         1 UNK         0.3459 
    133 H133       35.7831   26.1516    7.9662 H         1 UNK         0.3459 
    134 H134       37.6290   27.1917    3.9613 H         1 UNK         0.0616 
    135 H135       36.8324   28.6230    3.3686 H         1 UNK         0.0616 
    136 H136       35.5435   27.8467    1.4815 H         1 UNK         0.0634 
    137 H137       36.2472   26.2417    1.4987 H         1 UNK         0.0634 
@<TRIPOS>BOND
     1    1    2 1    
     2    1   72 1    
     3    1   73 1    
     4    1   74 1    
     5    2    3 2    
     6    2    4 am   BACKBONE|DICT|INTERRES
     7    4    5 1    
     8    4   75 1    
     9    5    6 1    
    10    5   35 1    
    11    5   76 1    
    12    6    7 1    
    13    6   77 1    
    14    6   78 1    
    15    7    8 1    
    16    8    9 1    
    17    8   79 1    
    18    8   80 1    
    19    9   10 ar   
    20    9   14 ar   
    21   10   11 ar   
    22   10   81 1    
    23   11   12 ar   
    24   11   71 1    
    25   12   13 ar   
    26   12   82 1    
    27   13   14 ar   
    28   13   15 1    
    29   14   83 1    
    30   15   16 1    
    31   15   84 1    
    32   15   85 1    
    33   16   17 1    
    34   17   18 1    
    35   17   86 1    
    36   17   87 1    
    37   18   19 1    
    38   18   37 1    
    39   18   88 1    
    40   19   20 am   BACKBONE|DICT|INTERRES
    41   19   89 1    
    42   20   21 2    
    43   20   22 1    
    44   22   23 1    
    45   22   24 1    
    46   22   90 1    
    47   23   91 1    
    48   23   92 1    
    49   23   93 1    
    50   24   25 am   BACKBONE|DICT|INTERRES
    51   24   94 1    
    52   25   26 2    
    53   25   27 1    
    54   27   28 1    
    55   27   29 1    
    56   27   95 1    
    57   28   96 1    
    58   28   97 1    
    59   28   98 1    
    60   29   30 am   BACKBONE|DICT|INTERRES
    61   29   99 1    
    62   30   31 2    
    63   30   32 1    
    64   32   33 1    
    65   32   34 1    
    66   32  100 1    
    67   33  101 1    
    68   33  102 1    
    69   33  103 1    
    70   34   35 am   BACKBONE|DICT|INTERRES
    71   34  104 1    
    72   35   36 2    
    73   37   38 2    
    74   37   39 am   BACKBONE|DICT|INTERRES
    75   39   40 1    
    76   39  105 1    
    77   40   41 1    
    78   40   42 1    
    79   40  106 1    
    80   41  107 1    
    81   41  108 1    
    82   41  109 1    
    83   42   43 2    
    84   42   44 am   BACKBONE|DICT|INTERRES
    85   44   45 1    
    86   44  110 1    
    87   45   46 1    
    88   45   47 1    
    89   45  111 1    
    90   46  112 1    
    91   46  113 1    
    92   46  114 1    
    93   47   48 2    
    94   47   49 am   BACKBONE|DICT|INTERRES
    95   49   50 1    
    96   49  115 1    
    97   50   51 1    
    98   50   52 1    
    99   50  116 1    
   100   51  117 1    
   101   51  118 1    
   102   51  119 1    
   103   52   53 2    
   104   52   54 am   BACKBONE|DICT|INTERRES
   105   54   55 1    
   106   54  120 1    
   107   55   56 1    
   108   55   57 1    
   109   55  121 1    
   110   56  122 1    
   111   56  123 1    
   112   56  124 1    
   113   57   58 2    
   114   57   59 am   BACKBONE|DICT|INTERRES
   115   59   60 1    
   116   59  125 1    
   117   60   61 1    
   118   60   62 1    
   119   60  126 1    
   120   61  127 1    
   121   61  128 1    
   122   61  129 1    
   123   62   63 2    
   124   62   64 am   BACKBONE|DICT|INTERRES
   125   64   65 1    
   126   64  130 1    
   127   65   66 1    
   128   65   69 1    
   129   65  131 1    
   130   66   67 am   BACKBONE|DICT|INTERRES
   131   66   68 2    
   132   67  132 1    
   133   67  133 1    
   134   69   70 1    
   135   69  134 1    
   136   69  135 1    
   137   70   71 1    
   138   71  136 1    
   139   71  137 1    
@<TRIPOS>SUBSTRUCTURE
     1 UNK         1 GROUP             0       ****    0 ROOT    
