@<TRIPOS>MOLECULE
3R136
137   139    1
SMALL
USER_CHARGES


@<TRIPOS>ATOM
      1 CA         27.6588   18.6364   -2.5363 C.3       0 UNK        -0.1979 
      2 C          28.1586   19.9890   -2.0513 C.2       0 UNK         0.4864 
      3 O          28.8983   20.6638   -2.7705 O.2       0 UNK        -0.5359 
      4 N          27.7618   20.3965   -0.8380 N.am      1 UNK        -0.4318 
      5 CA         28.1182   21.6773   -0.2228 C.3       1 UNK         0.0824 
      6 C6         28.0188   21.6049    1.3228 C.3       12 UNK        -0.0944 
      7 S7         28.8177   23.0301    2.1360 S.3       12 UNK        -0.2672 
      8 C8         30.3536   22.2803    2.7454 C.3       12 UNK         0.0333 
      9 C9         31.1923   23.3149    3.4749 C.ar      12 UNK        -0.0807 
     10 C10        32.2471   23.9586    2.8218 C.ar      12 UNK        -0.0894 
     11 C11        33.0129   24.9174    3.4913 C.ar      12 UNK        -0.0804 
     12 C12        32.7219   25.2250    4.8238 C.ar      12 UNK        -0.0824 
     13 C13        31.6655   24.5912    5.4840 C.ar      12 UNK        -0.0762 
     14 C14        30.9057   23.6344    4.8050 C.ar      12 UNK        -0.0782 
     15 C15        31.3491   24.9357    6.9322 C.3       12 UNK         0.0230 
     16 S16        30.6552   26.6103    7.1043 S.3       12 UNK        -0.2608 
     17 C17        29.1159   26.4982    6.1295 C.3       12 UNK        -0.0989 
     18 CA         29.2051   27.2072    4.7440 C.3       5 UNK         0.0716 
     19 N          28.3860   26.5347    3.7262 N.am      5 UNK        -0.4135 
     20 C          27.0559   26.3492    3.7495 C.2       4 UNK         0.5031 
     21 O          26.3512   26.6105    4.7253 O.2       4 UNK        -0.5229 
     22 CA         26.3900   25.8318    2.4530 C.3       4 UNK         0.0329 
     23 CB         24.9890   26.4436    2.2435 C.3       4 UNK        -0.2001 
     24 N          27.1959   26.0050    1.2339 N.am      4 UNK        -0.4303 
     25 C          27.7110   27.1470    0.7492 C.2       3 UNK         0.5044 
     26 O          27.5818   28.2389    1.3035 O.2       3 UNK        -0.5152 
     27 CA         28.5726   27.0532   -0.5215 C.3       3 UNK         0.0319 
     28 CB         30.0630   27.0491   -0.1394 C.3       3 UNK        -0.2001 
     29 N          28.2849   25.8718   -1.3377 N.am      3 UNK        -0.4354 
     30 C          27.1855   25.7104   -2.0892 C.2       2 UNK         0.4964 
     31 O          26.3189   26.5731   -2.2319 O.2       2 UNK        -0.5047 
     32 CA         27.0131   24.3463   -2.7849 C.3       2 UNK         0.0288 
     33 CB         27.5728   24.3943   -4.2158 C.3       2 UNK        -0.2113 
     34 N          27.6358   23.2331   -2.0589 N.am      2 UNK        -0.4145 
     35 C          27.2790   22.8207   -0.8347 C.2       1 UNK         0.5006 
     36 O          26.3410   23.3101   -0.2021 O.2       1 UNK        -0.5103 
     37 C          28.9337   28.7352    4.8431 C.2       5 UNK         0.5055 
     38 O          29.4904   29.3797    5.7344 O.2       5 UNK        -0.5220 
     39 N          28.0924   29.2979    3.9611 N.am      6 UNK        -0.4450 
     40 CA         27.5112   30.6369    4.0961 C.3       6 UNK         0.0367 
     41 CB         25.9941   30.4883    4.2996 C.3       6 UNK        -0.1929 
     42 C          27.7893   31.5584    2.8995 C.2       6 UNK         0.5070 
     43 O          27.7483   32.7765    3.0758 O.2       6 UNK        -0.5237 
     44 N          28.0660   30.9969    1.7172 N.am      7 UNK        -0.4739 
     45 CA         28.3353   31.7349    0.4853 C.3       7 UNK         0.0276 
     46 CB         27.1139   31.5859   -0.4428 C.3       7 UNK        -0.1927 
     47 C          29.6238   31.1960   -0.1665 C.2       7 UNK         0.5013 
     48 O          29.5291   30.3245   -1.0286 O.2       7 UNK        -0.5193 
     49 N          30.8261   31.6706    0.1930 N.am      8 UNK        -0.4253 
     50 CA         31.1638   32.6301    1.2496 C.3       8 UNK         0.0242 
     51 CB         32.5459   33.2263    0.9313 C.3       8 UNK        -0.2000 
     52 C          31.1809   31.9672    2.6359 C.2       8 UNK         0.4948 
     53 O          31.2166   30.7373    2.7291 O.2       8 UNK        -0.5275 
     54 N          31.1645   32.7995    3.6871 N.am      9 UNK        -0.4246 
     55 CA         31.2017   32.3943    5.0958 C.3       9 UNK         0.0261 
     56 CB         31.1623   33.6448    5.9893 C.3       9 UNK        -0.1959 
     57 C          32.4393   31.5343    5.3981 C.2       9 UNK         0.5033 
     58 O          33.5622   32.0327    5.2851 O.2       9 UNK        -0.5390 
     59 N          32.2072   30.2458    5.6863 N.am      10 UNK        -0.4215 
     60 CA         33.2092   29.1796    5.8267 C.3       10 UNK         0.0240 
     61 CB         33.9906   29.3439    7.1465 C.3       10 UNK        -0.1982 
     62 C          34.1336   29.0218    4.5982 C.2       10 UNK         0.4970 
     63 O          35.2824   28.6036    4.7501 O.2       10 UNK        -0.4916 
     64 N          33.6183   29.3730    3.4119 N.am      11 UNK        -0.4279 
     65 CA         34.3322   29.4574    2.1283 C.3       11 UNK         0.1003 
     66 C          35.4104   30.5826    2.0673 C.2       11 UNK         0.5709 
     67 N          35.4122   31.5567    2.9717 N.am      11 UNK        -0.7358 
     68 O          36.2408   30.5994    1.1618 O.2       11 UNK        -0.4999 
     69 C69        34.8493   28.0865    1.6038 C.3       12 UNK        -0.0954 
     70 S70        33.5371   26.8178    1.5592 S.3       12 UNK        -0.2268 
     71 C71        34.1575   25.6185    2.7790 C.3       12 UNK         0.0203 
     72 H72        28.5018   17.9777   -2.7432 H         1 UNK         0.0888 
     73 H73        27.0206   18.1491   -1.7993 H         1 UNK         0.0888 
     74 H74        27.0858   18.7562   -3.4553 H         1 UNK         0.0888 
     75 H75        27.1314   19.8149   -0.3038 H         1 UNK         0.3017 
     76 H76        29.1645   21.8797   -0.4645 H         1 UNK         0.0873 
     77 H77        26.9792   21.5480    1.6511 H         1 UNK         0.0745 
     78 H78        28.4904   20.6891    1.6831 H         1 UNK         0.0745 
     79 H79        30.1174   21.4533    3.4170 H         1 UNK         0.0705 
     80 H80        30.9094   21.8553    1.9080 H         1 UNK         0.0705 
     81 H81        32.4687   23.7225    1.7898 H         1 UNK         0.1334 
     82 H82        33.3135   25.9617    5.3493 H         1 UNK         0.1417 
     83 H83        30.0843   23.1407    5.3067 H         1 UNK         0.1562 
     84 H84        32.2631   24.8710    7.5242 H         1 UNK         0.0748 
     85 H85        30.6546   24.2135    7.3643 H         1 UNK         0.0748 
     86 H86        28.2936   26.9018    6.7236 H         1 UNK         0.0940 
     87 H87        28.8768   25.4419    5.9994 H         1 UNK         0.0940 
     88 H88        30.2287   27.1131    4.3772 H         1 UNK         0.0703 
     89 H89        28.8760   26.2633    2.8862 H         1 UNK         0.3081 
     90 H90        26.2662   24.7560    2.5848 H         1 UNK         0.0719 
     91 H91        25.0314   27.5302    2.1600 H         1 UNK         0.0809 
     92 H92        24.3255   26.2061    3.0758 H         1 UNK         0.0809 
     93 H93        24.5206   26.0558    1.3387 H         1 UNK         0.0809 
     94 H94        27.3455   25.1555    0.7041 H         1 UNK         0.2990 
     95 H95        28.3692   27.9423   -1.1212 H         1 UNK         0.0690 
     96 H96        30.6989   27.0736   -1.0243 H         1 UNK         0.0788 
     97 H97        30.3336   26.1691    0.4460 H         1 UNK         0.0788 
     98 H98        30.3162   27.9272    0.4576 H         1 UNK         0.0788 
     99 H99        28.9558   25.1185   -1.3026 H         1 UNK         0.2993 
    100 H100       25.9409   24.1457   -2.8415 H         1 UNK         0.0949 
    101 H101       27.3804   23.4626   -4.7484 H         1 UNK         0.0767 
    102 H102       27.1075   25.1967   -4.7904 H         1 UNK         0.0767 
    103 H103       28.6495   24.5694   -4.2229 H         1 UNK         0.0767 
    104 H104       28.3610   22.7109   -2.5390 H         1 UNK         0.3013 
    105 H105       27.7515   28.7383    3.1851 H         1 UNK         0.3121 
    106 H106       27.9172   31.1397    4.9760 H         1 UNK         0.0774 
    107 H107       25.5170   31.4614    4.4243 H         1 UNK         0.0815 
    108 H108       25.5205   29.9972    3.4483 H         1 UNK         0.0815 
    109 H109       25.7705   29.9008    5.1903 H         1 UNK         0.0815 
    110 H110       28.0725   29.9828    1.6289 H         1 UNK         0.2987 
    111 H111       28.4567   32.8011    0.6754 H         1 UNK         0.0949 
    112 H112       26.8870   30.5388   -0.6495 H         1 UNK         0.0806 
    113 H113       26.2255   32.0368   -0.0004 H         1 UNK         0.0806 
    114 H114       27.2868   32.0799   -1.3997 H         1 UNK         0.0806 
    115 H115       31.6231   31.2465   -0.2559 H         1 UNK         0.3010 
    116 H116       30.4407   33.4459    1.2612 H         1 UNK         0.0829 
    117 H117       32.5442   33.7367   -0.0321 H         1 UNK         0.0813 
    118 H118       32.8467   33.9598    1.6806 H         1 UNK         0.0813 
    119 H119       33.3206   32.4599    0.9005 H         1 UNK         0.0813 
    120 H120       31.1553   33.7941    3.5142 H         1 UNK         0.3038 
    121 H121       30.3012   31.8122    5.2937 H         1 UNK         0.0769 
    122 H122       30.2541   34.2243    5.8223 H         1 UNK         0.0811 
    123 H123       32.0173   34.2980    5.8093 H         1 UNK         0.0811 
    124 H124       31.1801   33.3688    7.0445 H         1 UNK         0.0811 
    125 H125       31.2346   29.9379    5.7290 H         1 UNK         0.3204 
    126 H126       32.6479   28.2492    5.8872 H         1 UNK         0.0748 
    127 H127       33.3149   29.4154    7.9989 H         1 UNK         0.0771 
    128 H128       34.6444   28.4895    7.3259 H         1 UNK         0.0771 
    129 H129       34.6154   30.2377    7.1361 H         1 UNK         0.0771 
    130 H130       32.6674   29.7329    3.3783 H         1 UNK         0.2980 
    131 H131       33.5717   29.7887    1.4208 H         1 UNK         0.0545 
    132 H132       36.1109   32.2792    2.9080 H         1 UNK         0.3459 
    133 H133       34.7398   31.5761    3.7317 H         1 UNK         0.3459 
    134 H134       35.2251   28.1918    0.5848 H         1 UNK         0.0616 
    135 H135       35.6964   27.7409    2.1975 H         1 UNK         0.0616 
    136 H136       34.7943   26.1191    3.5093 H         1 UNK         0.0634 
    137 H137       34.7870   24.8851    2.2733 H         1 UNK         0.0634 
@<TRIPOS>BOND
     1    1    2 1    
     2    1   72 1    
     3    1   73 1    
     4    1   74 1    
     5    2    3 2    
     6    2    4 am   BACKBONE|DICT|INTERRES
     7    4    5 1    
     8    4   75 1    
     9    5    6 1    
    10    5   35 1    
    11    5   76 1    
    12    6    7 1    
    13    6   77 1    
    14    6   78 1    
    15    7    8 1    
    16    8    9 1    
    17    8   79 1    
    18    8   80 1    
    19    9   10 ar   
    20    9   14 ar   
    21   10   11 ar   
    22   10   81 1    
    23   11   12 ar   
    24   11   71 1    
    25   12   13 ar   
    26   12   82 1    
    27   13   14 ar   
    28   13   15 1    
    29   14   83 1    
    30   15   16 1    
    31   15   84 1    
    32   15   85 1    
    33   16   17 1    
    34   17   18 1    
    35   17   86 1    
    36   17   87 1    
    37   18   19 1    
    38   18   37 1    
    39   18   88 1    
    40   19   20 am   BACKBONE|DICT|INTERRES
    41   19   89 1    
    42   20   21 2    
    43   20   22 1    
    44   22   23 1    
    45   22   24 1    
    46   22   90 1    
    47   23   91 1    
    48   23   92 1    
    49   23   93 1    
    50   24   25 am   BACKBONE|DICT|INTERRES
    51   24   94 1    
    52   25   26 2    
    53   25   27 1    
    54   27   28 1    
    55   27   29 1    
    56   27   95 1    
    57   28   96 1    
    58   28   97 1    
    59   28   98 1    
    60   29   30 am   BACKBONE|DICT|INTERRES
    61   29   99 1    
    62   30   31 2    
    63   30   32 1    
    64   32   33 1    
    65   32   34 1    
    66   32  100 1    
    67   33  101 1    
    68   33  102 1    
    69   33  103 1    
    70   34   35 am   BACKBONE|DICT|INTERRES
    71   34  104 1    
    72   35   36 2    
    73   37   38 2    
    74   37   39 am   BACKBONE|DICT|INTERRES
    75   39   40 1    
    76   39  105 1    
    77   40   41 1    
    78   40   42 1    
    79   40  106 1    
    80   41  107 1    
    81   41  108 1    
    82   41  109 1    
    83   42   43 2    
    84   42   44 am   BACKBONE|DICT|INTERRES
    85   44   45 1    
    86   44  110 1    
    87   45   46 1    
    88   45   47 1    
    89   45  111 1    
    90   46  112 1    
    91   46  113 1    
    92   46  114 1    
    93   47   48 2    
    94   47   49 am   BACKBONE|DICT|INTERRES
    95   49   50 1    
    96   49  115 1    
    97   50   51 1    
    98   50   52 1    
    99   50  116 1    
   100   51  117 1    
   101   51  118 1    
   102   51  119 1    
   103   52   53 2    
   104   52   54 am   BACKBONE|DICT|INTERRES
   105   54   55 1    
   106   54  120 1    
   107   55   56 1    
   108   55   57 1    
   109   55  121 1    
   110   56  122 1    
   111   56  123 1    
   112   56  124 1    
   113   57   58 2    
   114   57   59 am   BACKBONE|DICT|INTERRES
   115   59   60 1    
   116   59  125 1    
   117   60   61 1    
   118   60   62 1    
   119   60  126 1    
   120   61  127 1    
   121   61  128 1    
   122   61  129 1    
   123   62   63 2    
   124   62   64 am   BACKBONE|DICT|INTERRES
   125   64   65 1    
   126   64  130 1    
   127   65   66 1    
   128   65   69 1    
   129   65  131 1    
   130   66   67 am   BACKBONE|DICT|INTERRES
   131   66   68 2    
   132   67  132 1    
   133   67  133 1    
   134   69   70 1    
   135   69  134 1    
   136   69  135 1    
   137   70   71 1    
   138   71  136 1    
   139   71  137 1    
@<TRIPOS>SUBSTRUCTURE
     1 UNK         1 GROUP             0       ****    0 ROOT    
