@<TRIPOS>MOLECULE
3R136
137   139    1
SMALL
USER_CHARGES


@<TRIPOS>ATOM
      1 CA         24.5612   19.2197    3.9507 C.3       0 UNK        -0.1979 
      2 C          25.6030   20.2655    3.5797 C.2       0 UNK         0.4864 
      3 O          25.5650   21.3741    4.1159 O.2       0 UNK        -0.5359 
      4 N          26.5294   19.9093    2.6766 N.am      1 UNK        -0.4318 
      5 CA         27.5961   20.7539    2.1181 C.3       1 UNK         0.0824 
      6 C6         28.5043   21.3809    3.2164 C.3       12 UNK        -0.0944 
      7 S7         30.2274   21.6238    2.6701 S.3       12 UNK        -0.2672 
      8 C8         30.5062   23.3435    3.1894 C.3       12 UNK         0.0333 
      9 C9         31.8482   23.8537    2.6921 C.ar      12 UNK        -0.0807 
     10 C10        32.9686   23.8704    3.5282 C.ar      12 UNK        -0.0894 
     11 C11        34.1943   24.3558    3.0589 C.ar      12 UNK        -0.0804 
     12 C12        34.2905   24.8286    1.7454 C.ar      12 UNK        -0.0824 
     13 C13        33.1700   24.8386    0.9092 C.ar      12 UNK        -0.0762 
     14 C14        31.9598   24.3283    1.3851 C.ar      12 UNK        -0.0782 
     15 C15        33.2704   25.3987   -0.5034 C.3       12 UNK         0.0230 
     16 S16        32.7879   27.1565   -0.5764 S.3       12 UNK        -0.2608 
     17 C17        30.9749   27.0301   -0.7287 C.3       12 UNK        -0.0989 
     18 CA         30.2052   28.3010   -0.2969 C.3       5 UNK         0.0716 
     19 N          28.8131   28.2229   -0.7412 N.am      5 UNK        -0.4135 
     20 C          28.0373   29.2735   -1.0363 C.2       4 UNK         0.5031 
     21 O          28.4367   30.4375   -1.0606 O.2       4 UNK        -0.5229 
     22 CA         26.5614   28.9796   -1.3699 C.3       4 UNK         0.0329 
     23 CB         26.3623   28.8955   -2.8919 C.3       4 UNK        -0.2001 
     24 N          26.0457   27.7548   -0.7480 N.am      4 UNK        -0.4303 
     25 C          25.8653   27.5927    0.5704 C.2       3 UNK         0.5044 
     26 O          26.1048   28.4631    1.4039 O.2       3 UNK        -0.5152 
     27 CA         25.3884   26.2113    1.0491 C.3       3 UNK         0.0319 
     28 CB         23.8551   26.1246    0.9993 C.3       3 UNK        -0.2001 
     29 N          25.9675   25.0807    0.3156 N.am      3 UNK        -0.4354 
     30 C          27.2764   24.8344    0.1690 C.2       2 UNK         0.4964 
     31 O          28.1695   25.5757    0.5869 O.2       2 UNK        -0.5047 
     32 CA         27.6465   23.5334   -0.5575 C.3       2 UNK         0.0288 
     33 CB         28.8324   23.7287   -1.5187 C.3       2 UNK        -0.2113 
     34 N          27.9658   22.4910    0.4183 N.am      2 UNK        -0.4145 
     35 C          27.0518   21.7885    1.1015 C.2       1 UNK         0.5006 
     36 O          25.8373   21.9129    0.9155 O.2       1 UNK        -0.5103 
     37 C          30.2611   28.5433    1.2271 C.2       5 UNK         0.5055 
     38 O          31.0897   29.3294    1.6864 O.2       5 UNK        -0.5220 
     39 N          29.3641   27.8853    1.9782 N.am      6 UNK        -0.4450 
     40 CA         29.2328   28.0232    3.4290 C.3       6 UNK         0.0367 
     41 CB         28.2872   26.9386    3.9681 C.3       6 UNK        -0.1929 
     42 C          28.7668   29.4208    3.8726 C.2       6 UNK         0.5070 
     43 O          29.3303   29.9716    4.8191 O.2       6 UNK        -0.5237 
     44 N          27.7421   29.9625    3.1985 N.am      7 UNK        -0.4739 
     45 CA         27.1209   31.2563    3.4938 C.3       7 UNK         0.0276 
     46 CB         25.9336   31.4826    2.5431 C.3       7 UNK        -0.1927 
     47 C          28.1178   32.4226    3.4021 C.2       7 UNK         0.5013 
     48 O          28.6474   32.6843    2.3200 O.2       7 UNK        -0.5193 
     49 N          28.3578   33.0848    4.5435 N.am      8 UNK        -0.4253 
     50 CA         29.2458   34.2334    4.7846 C.3       8 UNK         0.0242 
     51 CB         28.8009   35.4667    3.9739 C.3       8 UNK        -0.2000 
     52 C          30.7478   33.9554    4.5832 C.2       8 UNK         0.4948 
     53 O          31.5508   34.3720    5.4187 O.2       8 UNK        -0.5275 
     54 N          31.1062   33.2707    3.4919 N.am      9 UNK        -0.4246 
     55 CA         32.4798   32.9487    3.1050 C.3       9 UNK         0.0261 
     56 CB         32.5162   32.6428    1.5990 C.3       9 UNK        -0.1959 
     57 C          33.1106   31.8012    3.9135 C.2       9 UNK         0.5033 
     58 O          34.3339   31.6544    3.8551 O.2       9 UNK        -0.5390 
     59 N          32.2979   31.0089    4.6317 N.am      10 UNK        -0.4215 
     60 CA         32.6520   29.8550    5.4727 C.3       10 UNK         0.0240 
     61 CB         33.5725   30.2575    6.6435 C.3       10 UNK        -0.1982 
     62 C          33.2175   28.6658    4.6773 C.2       10 UNK         0.4970 
     63 O          32.5997   27.6023    4.6697 O.2       10 UNK        -0.4916 
     64 N          34.3646   28.8784    4.0279 N.am      11 UNK        -0.4279 
     65 CA         35.0011   27.9735    3.0633 C.3       11 UNK         0.1003 
     66 C          35.5227   28.7167    1.7985 C.2       11 UNK         0.5709 
     67 N          35.4027   30.0358    1.6829 N.am      11 UNK        -0.7358 
     68 O          36.0512   28.0800    0.8903 O.2       11 UNK        -0.4999 
     69 C69        36.1186   27.0991    3.7038 C.3       12 UNK        -0.0954 
     70 S70        35.5200   25.9045    4.9468 S.3       12 UNK        -0.2268 
     71 C71        35.4120   24.3680    3.9729 C.3       12 UNK         0.0203 
     72 H72        23.5627   19.5854    3.7125 H         1 UNK         0.0888 
     73 H73        24.7146   18.2819    3.4169 H         1 UNK         0.0888 
     74 H74        24.6024   19.0117    5.0195 H         1 UNK         0.0888 
     75 H75        26.4713   18.9857    2.2704 H         1 UNK         0.3017 
     76 H76        28.2038   20.0601    1.5346 H         1 UNK         0.0873 
     77 H77        28.0803   22.3157    3.5886 H         1 UNK         0.0745 
     78 H78        28.5533   20.7186    4.0823 H         1 UNK         0.0745 
     79 H79        30.4486   23.4108    4.2770 H         1 UNK         0.0705 
     80 H80        29.7089   23.9755    2.7946 H         1 UNK         0.0705 
     81 H81        32.8872   23.5093    4.5443 H         1 UNK         0.1334 
     82 H82        35.2328   25.2149    1.3810 H         1 UNK         0.1417 
     83 H83        31.0919   24.2989    0.7471 H         1 UNK         0.1562 
     84 H84        32.6559   24.8147   -1.1905 H         1 UNK         0.0748 
     85 H85        34.2961   25.3070   -0.8642 H         1 UNK         0.0748 
     86 H86        30.6118   26.1737   -0.1683 H         1 UNK         0.0940 
     87 H87        30.7620   26.8093   -1.7761 H         1 UNK         0.0940 
     88 H88        30.6748   29.1587   -0.7841 H         1 UNK         0.0703 
     89 H89        28.3876   27.3061   -0.7036 H         1 UNK         0.3081 
     90 H90        25.9715   29.8187   -0.9942 H         1 UNK         0.0719 
     91 H91        26.7114   29.8058   -3.3817 H         1 UNK         0.0809 
     92 H92        26.9127   28.0603   -3.3269 H         1 UNK         0.0809 
     93 H93        25.3096   28.7761   -3.1490 H         1 UNK         0.0809 
     94 H94        25.8204   26.9854   -1.3620 H         1 UNK         0.2990 
     95 H95        25.6960   26.1047    2.0907 H         1 UNK         0.0690 
     96 H96        23.3996   26.9442    1.5573 H         1 UNK         0.0788 
     97 H97        23.4957   25.1955    1.4423 H         1 UNK         0.0788 
     98 H98        23.4791   26.1774   -0.0233 H         1 UNK         0.0788 
     99 H99        25.3140   24.3884   -0.0242 H         1 UNK         0.2993 
    100 H100       26.7917   23.2117   -1.1571 H         1 UNK         0.0949 
    101 H101       29.0325   22.8193   -2.0857 H         1 UNK         0.0767 
    102 H102       28.6231   24.5193   -2.2406 H         1 UNK         0.0767 
    103 H103       29.7475   24.0005   -0.9969 H         1 UNK         0.0767 
    104 H104       28.9420   22.3548    0.6430 H         1 UNK         0.3013 
    105 H105       28.7541   27.2114    1.5269 H         1 UNK         0.3121 
    106 H106       30.2174   27.8519    3.8622 H         1 UNK         0.0774 
    107 H107       27.2721   27.0653    3.5925 H         1 UNK         0.0815 
    108 H108       28.6260   25.9408    3.6919 H         1 UNK         0.0815 
    109 H109       28.2376   26.9749    5.0571 H         1 UNK         0.0815 
    110 H110       27.3130   29.4221    2.4501 H         1 UNK         0.2987 
    111 H111       26.7299   31.2048    4.5120 H         1 UNK         0.0949 
    112 H112       25.4650   32.4511    2.7224 H         1 UNK         0.0806 
    113 H113       26.2463   31.4575    1.4980 H         1 UNK         0.0806 
    114 H114       25.1655   30.7213    2.6799 H         1 UNK         0.0806 
    115 H115       27.9001   32.7365    5.3750 H         1 UNK         0.3010 
    116 H116       29.1197   34.4792    5.8405 H         1 UNK         0.0829 
    117 H117       28.8990   35.3082    2.8995 H         1 UNK         0.0813 
    118 H118       27.7620   35.7235    4.1810 H         1 UNK         0.0813 
    119 H119       29.4064   36.3377    4.2281 H         1 UNK         0.0813 
    120 H120       30.3595   32.9743    2.8646 H         1 UNK         0.3038 
    121 H121       33.0964   33.8329    3.2807 H         1 UNK         0.0769 
    122 H122       31.8822   31.7937    1.3445 H         1 UNK         0.0811 
    123 H123       33.5282   32.4061    1.2681 H         1 UNK         0.0811 
    124 H124       32.1779   33.4978    1.0137 H         1 UNK         0.0811 
    125 H125       31.3014   31.1714    4.5505 H         1 UNK         0.3204 
    126 H126       31.7138   29.5136    5.9121 H         1 UNK         0.0748 
    127 H127       33.7672   29.4033    7.2934 H         1 UNK         0.0771 
    128 H128       34.5387   30.6314    6.3046 H         1 UNK         0.0771 
    129 H129       33.1124   31.0327    7.2563 H         1 UNK         0.0771 
    130 H130       34.7454   29.8182    4.0731 H         1 UNK         0.2980 
    131 H131       34.2233   27.3154    2.6772 H         1 UNK         0.0545 
    132 H132       35.7519   30.4765    0.8474 H         1 UNK         0.3459 
    133 H133       34.9865   30.6048    2.4115 H         1 UNK         0.3459 
    134 H134       36.8578   27.7409    4.1856 H         1 UNK         0.0616 
    135 H135       36.6666   26.5430    2.9417 H         1 UNK         0.0616 
    136 H136       36.3274   24.2271    3.3963 H         1 UNK         0.0634 
    137 H137       35.3590   23.5245    4.6627 H         1 UNK         0.0634 
@<TRIPOS>BOND
     1    1    2 1    
     2    1   72 1    
     3    1   73 1    
     4    1   74 1    
     5    2    3 2    
     6    2    4 am   BACKBONE|DICT|INTERRES
     7    4    5 1    
     8    4   75 1    
     9    5    6 1    
    10    5   35 1    
    11    5   76 1    
    12    6    7 1    
    13    6   77 1    
    14    6   78 1    
    15    7    8 1    
    16    8    9 1    
    17    8   79 1    
    18    8   80 1    
    19    9   10 ar   
    20    9   14 ar   
    21   10   11 ar   
    22   10   81 1    
    23   11   12 ar   
    24   11   71 1    
    25   12   13 ar   
    26   12   82 1    
    27   13   14 ar   
    28   13   15 1    
    29   14   83 1    
    30   15   16 1    
    31   15   84 1    
    32   15   85 1    
    33   16   17 1    
    34   17   18 1    
    35   17   86 1    
    36   17   87 1    
    37   18   19 1    
    38   18   37 1    
    39   18   88 1    
    40   19   20 am   BACKBONE|DICT|INTERRES
    41   19   89 1    
    42   20   21 2    
    43   20   22 1    
    44   22   23 1    
    45   22   24 1    
    46   22   90 1    
    47   23   91 1    
    48   23   92 1    
    49   23   93 1    
    50   24   25 am   BACKBONE|DICT|INTERRES
    51   24   94 1    
    52   25   26 2    
    53   25   27 1    
    54   27   28 1    
    55   27   29 1    
    56   27   95 1    
    57   28   96 1    
    58   28   97 1    
    59   28   98 1    
    60   29   30 am   BACKBONE|DICT|INTERRES
    61   29   99 1    
    62   30   31 2    
    63   30   32 1    
    64   32   33 1    
    65   32   34 1    
    66   32  100 1    
    67   33  101 1    
    68   33  102 1    
    69   33  103 1    
    70   34   35 am   BACKBONE|DICT|INTERRES
    71   34  104 1    
    72   35   36 2    
    73   37   38 2    
    74   37   39 am   BACKBONE|DICT|INTERRES
    75   39   40 1    
    76   39  105 1    
    77   40   41 1    
    78   40   42 1    
    79   40  106 1    
    80   41  107 1    
    81   41  108 1    
    82   41  109 1    
    83   42   43 2    
    84   42   44 am   BACKBONE|DICT|INTERRES
    85   44   45 1    
    86   44  110 1    
    87   45   46 1    
    88   45   47 1    
    89   45  111 1    
    90   46  112 1    
    91   46  113 1    
    92   46  114 1    
    93   47   48 2    
    94   47   49 am   BACKBONE|DICT|INTERRES
    95   49   50 1    
    96   49  115 1    
    97   50   51 1    
    98   50   52 1    
    99   50  116 1    
   100   51  117 1    
   101   51  118 1    
   102   51  119 1    
   103   52   53 2    
   104   52   54 am   BACKBONE|DICT|INTERRES
   105   54   55 1    
   106   54  120 1    
   107   55   56 1    
   108   55   57 1    
   109   55  121 1    
   110   56  122 1    
   111   56  123 1    
   112   56  124 1    
   113   57   58 2    
   114   57   59 am   BACKBONE|DICT|INTERRES
   115   59   60 1    
   116   59  125 1    
   117   60   61 1    
   118   60   62 1    
   119   60  126 1    
   120   61  127 1    
   121   61  128 1    
   122   61  129 1    
   123   62   63 2    
   124   62   64 am   BACKBONE|DICT|INTERRES
   125   64   65 1    
   126   64  130 1    
   127   65   66 1    
   128   65   69 1    
   129   65  131 1    
   130   66   67 am   BACKBONE|DICT|INTERRES
   131   66   68 2    
   132   67  132 1    
   133   67  133 1    
   134   69   70 1    
   135   69  134 1    
   136   69  135 1    
   137   70   71 1    
   138   71  136 1    
   139   71  137 1    
@<TRIPOS>SUBSTRUCTURE
     1 UNK         1 GROUP             0       ****    0 ROOT    
