@<TRIPOS>MOLECULE
3R136
137   139    1
SMALL
USER_CHARGES


@<TRIPOS>ATOM
      1 CA         30.2377   21.7367    6.8646 C.3       0 UNK        -0.1979 
      2 C          29.5832   21.6797    5.4917 C.2       0 UNK         0.4864 
      3 O          28.7981   20.7655    5.2329 O.2       0 UNK        -0.5359 
      4 N          29.9048   22.6358    4.6092 N.am      1 UNK        -0.4318 
      5 CA         29.3172   22.7592    3.2699 C.3       1 UNK         0.0824 
      6 C6         30.2034   23.6130    2.3242 C.3       12 UNK        -0.0944 
      7 S7         29.9977   23.1046    0.5790 S.3       12 UNK        -0.2672 
      8 C8         31.7095   23.0337   -0.0285 C.3       12 UNK         0.0333 
      9 C9         32.3443   24.4132   -0.1488 C.ar      12 UNK        -0.0807 
     10 C10        33.3250   24.8108    0.7618 C.ar      12 UNK        -0.0894 
     11 C11        33.9673   26.0441    0.6251 C.ar      12 UNK        -0.0804 
     12 C12        33.6107   26.8922   -0.4302 C.ar      12 UNK        -0.0824 
     13 C13        32.6352   26.5035   -1.3577 C.ar      12 UNK        -0.0762 
     14 C14        32.0017   25.2645   -1.2052 C.ar      12 UNK        -0.0782 
     15 C15        32.3444   27.3728   -2.5786 C.3       12 UNK         0.0230 
     16 S16        31.0858   28.6590   -2.2859 S.3       12 UNK        -0.2608 
     17 C17        29.5144   27.7347   -2.4768 C.3       12 UNK        -0.0989 
     18 CA         28.5223   27.9611   -1.3026 C.3       5 UNK         0.0716 
     19 N          27.2571   27.2543   -1.4640 N.am      5 UNK        -0.4135 
     20 C          26.2929   27.5597   -2.3375 C.2       4 UNK         0.5031 
     21 O          26.3878   28.4519   -3.1814 O.2       4 UNK        -0.5229 
     22 CA         24.9884   26.7454   -2.2483 C.3       4 UNK         0.0329 
     23 CB         25.1048   25.4507   -3.0694 C.3       4 UNK        -0.2001 
     24 N          24.5865   26.4152   -0.8766 N.am      4 UNK        -0.4303 
     25 C          24.2561   27.3051    0.0725 C.2       3 UNK         0.5044 
     26 O          24.2339   28.5224   -0.1135 O.2       3 UNK        -0.5152 
     27 CA         23.8689   26.7589    1.4638 C.3       3 UNK         0.0319 
     28 CB         22.3525   26.8861    1.6860 C.3       3 UNK        -0.2001 
     29 N          24.2698   25.3682    1.7129 N.am      3 UNK        -0.4354 
     30 C          25.5365   24.9424    1.8115 C.2       2 UNK         0.4964 
     31 O          26.5067   25.6898    1.6948 O.2       2 UNK        -0.5047 
     32 CA         25.7268   23.4283    2.0246 C.3       2 UNK         0.0288 
     33 CB         25.1848   22.6337    0.8210 C.3       2 UNK        -0.2113 
     34 N          27.1274   23.0502    2.2227 N.am      2 UNK        -0.4145 
     35 C          27.8556   23.2680    3.3250 C.2       1 UNK         0.5006 
     36 O          27.4179   23.8218    4.3388 O.2       1 UNK        -0.5103 
     37 C          29.1111   27.4788    0.0245 C.2       5 UNK         0.5055 
     38 O          29.1120   26.2757    0.2756 O.2       5 UNK        -0.5220 
     39 N          29.6470   28.4140    0.8100 N.am      6 UNK        -0.4450 
     40 CA         30.4723   28.1278    1.9771 C.3       6 UNK         0.0367 
     41 CB         29.5873   27.9358    3.2244 C.3       6 UNK        -0.1929 
     42 C          31.5214   29.2363    2.1359 C.2       6 UNK         0.5070 
     43 O          31.7941   29.6631    3.2603 O.2       6 UNK        -0.5237 
     44 N          32.0508   29.7226    1.0011 N.am      7 UNK        -0.4739 
     45 CA         32.8746   30.9302    0.8650 C.3       7 UNK         0.0276 
     46 CB         34.2713   30.7184    1.4915 C.3       7 UNK        -0.1927 
     47 C          32.1135   32.1614    1.3983 C.2       7 UNK         0.5013 
     48 O          30.9246   32.3023    1.1014 O.2       7 UNK        -0.5193 
     49 N          32.7638   32.9988    2.2155 N.am      8 UNK        -0.4253 
     50 CA         32.1513   34.1293    2.9220 C.3       8 UNK         0.0242 
     51 CB         33.2360   35.1895    3.1934 C.3       8 UNK        -0.2000 
     52 C          31.4266   33.6757    4.2090 C.2       8 UNK         0.4948 
     53 O          31.6450   34.2625    5.2704 O.2       8 UNK        -0.5275 
     54 N          30.6011   32.6226    4.0922 N.am      9 UNK        -0.4246 
     55 CA         29.8860   31.9127    5.1635 C.3       9 UNK         0.0261 
     56 CB         28.7532   32.7908    5.7358 C.3       9 UNK        -0.1959 
     57 C          30.8395   31.3709    6.2495 C.2       9 UNK         0.5033 
     58 O          30.5819   31.5395    7.4437 O.2       9 UNK        -0.5390 
     59 N          31.9394   30.7550    5.8018 N.am      10 UNK        -0.4215 
     60 CA         33.0450   30.2803    6.6332 C.3       10 UNK         0.0240 
     61 CB         34.3491   30.9258    6.1348 C.3       10 UNK        -0.1982 
     62 C          33.1752   28.7511    6.6155 C.2       10 UNK         0.4970 
     63 O          33.5809   28.1804    7.6285 O.2       10 UNK        -0.4916 
     64 N          32.8462   28.1126    5.4847 N.am      11 UNK        -0.4279 
     65 CA         33.0121   26.6632    5.2681 C.3       11 UNK         0.1003 
     66 C          31.8399   25.7934    5.8127 C.2       11 UNK         0.5709 
     67 N          30.8809   26.3443    6.5466 N.am      11 UNK        -0.7358 
     68 O          31.7884   24.5941    5.5517 O.2       11 UNK        -0.4999 
     69 C69        33.3251   26.3136    3.7873 C.3       12 UNK        -0.0954 
     70 S70        34.5515   27.4085    2.9948 S.3       12 UNK        -0.2268 
     71 C71        35.1002   26.4120    1.5764 C.3       12 UNK         0.0203 
     72 H72        29.4821   21.8980    7.6328 H         1 UNK         0.0888 
     73 H73        30.7457   20.7966    7.0775 H         1 UNK         0.0888 
     74 H74        30.9711   22.5383    6.9376 H         1 UNK         0.0888 
     75 H75        30.5478   23.3734    4.8898 H         1 UNK         0.3017 
     76 H76        29.2816   21.7440    2.8668 H         1 UNK         0.0873 
     77 H77        31.2548   23.4954    2.5910 H         1 UNK         0.0745 
     78 H78        29.9905   24.6799    2.4204 H         1 UNK         0.0745 
     79 H79        31.7104   22.5551   -1.0087 H         1 UNK         0.0705 
     80 H80        32.2979   22.3860    0.6234 H         1 UNK         0.0705 
     81 H81        33.6110   24.1448    1.5641 H         1 UNK         0.1334 
     82 H82        34.1213   27.8378   -0.5515 H         1 UNK         0.1417 
     83 H83        31.2580   24.9450   -1.9219 H         1 UNK         0.1562 
     84 H84        32.0429   26.7536   -3.4250 H         1 UNK         0.0748 
     85 H85        33.2660   27.8658   -2.8916 H         1 UNK         0.0748 
     86 H86        29.7178   26.6697   -2.5976 H         1 UNK         0.0940 
     87 H87        29.0605   28.0565   -3.4149 H         1 UNK         0.0940 
     88 H88        28.2988   29.0274   -1.2238 H         1 UNK         0.0703 
     89 H89        27.1103   26.5166   -0.7840 H         1 UNK         0.3081 
     90 H90        24.1937   27.3543   -2.6846 H         1 UNK         0.0719 
     91 H91        25.3832   25.6678   -4.1017 H         1 UNK         0.0809 
     92 H92        25.8618   24.7790   -2.6624 H         1 UNK         0.0809 
     93 H93        24.1575   24.9119   -3.0987 H         1 UNK         0.0809 
     94 H94        24.5627   25.4368   -0.6320 H         1 UNK         0.2990 
     95 H95        24.3739   27.3856    2.2021 H         1 UNK         0.0690 
     96 H96        22.0727   26.5936    2.6983 H         1 UNK         0.0788 
     97 H97        21.7886   26.2665    0.9875 H         1 UNK         0.0788 
     98 H98        22.0214   27.9165    1.5473 H         1 UNK         0.0788 
     99 H99        23.5217   24.6965    1.8122 H         1 UNK         0.2993 
    100 H100       25.1678   23.1444    2.9190 H         1 UNK         0.0949 
    101 H101       24.1184   22.8055    0.6710 H         1 UNK         0.0767 
    102 H102       25.6942   22.9069   -0.1044 H         1 UNK         0.0767 
    103 H103       25.3129   21.5606    0.9667 H         1 UNK         0.0767 
    104 H104       27.6057   22.6723    1.4167 H         1 UNK         0.3013 
    105 H105       29.6019   29.3853    0.5305 H         1 UNK         0.3121 
    106 H106       31.0233   27.2062    1.7854 H         1 UNK         0.0774 
    107 H107       30.1881   27.7136    4.1051 H         1 UNK         0.0815 
    108 H108       29.0031   28.8298    3.4421 H         1 UNK         0.0815 
    109 H109       28.8926   27.1055    3.0916 H         1 UNK         0.0815 
    110 H110       31.7703   29.2919    0.1297 H         1 UNK         0.2987 
    111 H111       33.0095   31.0966   -0.2049 H         1 UNK         0.0949 
    112 H112       34.9322   31.5618    1.2886 H         1 UNK         0.0806 
    113 H113       34.7536   29.8355    1.0724 H         1 UNK         0.0806 
    114 H114       34.2234   30.5811    2.5721 H         1 UNK         0.0806 
    115 H115       33.7249   32.7916    2.4456 H         1 UNK         0.3010 
    116 H116       31.3973   34.5869    2.2775 H         1 UNK         0.0829 
    117 H117       34.0144   34.8102    3.8568 H         1 UNK         0.0813 
    118 H118       33.7119   35.5166    2.2688 H         1 UNK         0.0813 
    119 H119       32.8084   36.0756    3.6647 H         1 UNK         0.0813 
    120 H120       30.5066   32.2263    3.1632 H         1 UNK         0.3038 
    121 H121       29.4258   31.0390    4.6998 H         1 UNK         0.0769 
    122 H122       29.1431   33.6704    6.2491 H         1 UNK         0.0811 
    123 H123       28.1528   32.2336    6.4560 H         1 UNK         0.0811 
    124 H124       28.0802   33.1322    4.9494 H         1 UNK         0.0811 
    125 H125       32.0072   30.5781    4.8000 H         1 UNK         0.3204 
    126 H126       32.8944   30.5826    7.6717 H         1 UNK         0.0748 
    127 H127       35.1977   30.6167    6.7466 H         1 UNK         0.0771 
    128 H128       34.5700   30.6466    5.1037 H         1 UNK         0.0771 
    129 H129       34.2937   32.0138    6.1822 H         1 UNK         0.0771 
    130 H130       32.5191   28.6445    4.6843 H         1 UNK         0.2980 
    131 H131       33.8854   26.3482    5.8421 H         1 UNK         0.0545 
    132 H132       30.9180   27.3223    6.7816 H         1 UNK         0.3459 
    133 H133       30.1276   25.7701    6.8885 H         1 UNK         0.3459 
    134 H134       33.6989   25.2901    3.7288 H         1 UNK         0.0616 
    135 H135       32.4157   26.3321    3.1919 H         1 UNK         0.0616 
    136 H136       35.5923   25.5110    1.9458 H         1 UNK         0.0634 
    137 H137       35.8647   26.9716    1.0356 H         1 UNK         0.0634 
@<TRIPOS>BOND
     1    1    2 1    
     2    1   72 1    
     3    1   73 1    
     4    1   74 1    
     5    2    3 2    
     6    2    4 am   BACKBONE|DICT|INTERRES
     7    4    5 1    
     8    4   75 1    
     9    5    6 1    
    10    5   35 1    
    11    5   76 1    
    12    6    7 1    
    13    6   77 1    
    14    6   78 1    
    15    7    8 1    
    16    8    9 1    
    17    8   79 1    
    18    8   80 1    
    19    9   10 ar   
    20    9   14 ar   
    21   10   11 ar   
    22   10   81 1    
    23   11   12 ar   
    24   11   71 1    
    25   12   13 ar   
    26   12   82 1    
    27   13   14 ar   
    28   13   15 1    
    29   14   83 1    
    30   15   16 1    
    31   15   84 1    
    32   15   85 1    
    33   16   17 1    
    34   17   18 1    
    35   17   86 1    
    36   17   87 1    
    37   18   19 1    
    38   18   37 1    
    39   18   88 1    
    40   19   20 am   BACKBONE|DICT|INTERRES
    41   19   89 1    
    42   20   21 2    
    43   20   22 1    
    44   22   23 1    
    45   22   24 1    
    46   22   90 1    
    47   23   91 1    
    48   23   92 1    
    49   23   93 1    
    50   24   25 am   BACKBONE|DICT|INTERRES
    51   24   94 1    
    52   25   26 2    
    53   25   27 1    
    54   27   28 1    
    55   27   29 1    
    56   27   95 1    
    57   28   96 1    
    58   28   97 1    
    59   28   98 1    
    60   29   30 am   BACKBONE|DICT|INTERRES
    61   29   99 1    
    62   30   31 2    
    63   30   32 1    
    64   32   33 1    
    65   32   34 1    
    66   32  100 1    
    67   33  101 1    
    68   33  102 1    
    69   33  103 1    
    70   34   35 am   BACKBONE|DICT|INTERRES
    71   34  104 1    
    72   35   36 2    
    73   37   38 2    
    74   37   39 am   BACKBONE|DICT|INTERRES
    75   39   40 1    
    76   39  105 1    
    77   40   41 1    
    78   40   42 1    
    79   40  106 1    
    80   41  107 1    
    81   41  108 1    
    82   41  109 1    
    83   42   43 2    
    84   42   44 am   BACKBONE|DICT|INTERRES
    85   44   45 1    
    86   44  110 1    
    87   45   46 1    
    88   45   47 1    
    89   45  111 1    
    90   46  112 1    
    91   46  113 1    
    92   46  114 1    
    93   47   48 2    
    94   47   49 am   BACKBONE|DICT|INTERRES
    95   49   50 1    
    96   49  115 1    
    97   50   51 1    
    98   50   52 1    
    99   50  116 1    
   100   51  117 1    
   101   51  118 1    
   102   51  119 1    
   103   52   53 2    
   104   52   54 am   BACKBONE|DICT|INTERRES
   105   54   55 1    
   106   54  120 1    
   107   55   56 1    
   108   55   57 1    
   109   55  121 1    
   110   56  122 1    
   111   56  123 1    
   112   56  124 1    
   113   57   58 2    
   114   57   59 am   BACKBONE|DICT|INTERRES
   115   59   60 1    
   116   59  125 1    
   117   60   61 1    
   118   60   62 1    
   119   60  126 1    
   120   61  127 1    
   121   61  128 1    
   122   61  129 1    
   123   62   63 2    
   124   62   64 am   BACKBONE|DICT|INTERRES
   125   64   65 1    
   126   64  130 1    
   127   65   66 1    
   128   65   69 1    
   129   65  131 1    
   130   66   67 am   BACKBONE|DICT|INTERRES
   131   66   68 2    
   132   67  132 1    
   133   67  133 1    
   134   69   70 1    
   135   69  134 1    
   136   69  135 1    
   137   70   71 1    
   138   71  136 1    
   139   71  137 1    
@<TRIPOS>SUBSTRUCTURE
     1 UNK         1 GROUP             0       ****    0 ROOT    
