@<TRIPOS>MOLECULE
3R136
137   139    1
SMALL
USER_CHARGES


@<TRIPOS>ATOM
      1 CA         27.5748   18.2064    0.8494 C.3       0 UNK        -0.1979 
      2 C          27.8682   19.6526    0.4780 C.2       0 UNK         0.4864 
      3 O          27.5247   20.0800   -0.6246 O.2       0 UNK        -0.5359 
      4 N          28.5060   20.4027    1.3881 N.am      1 UNK        -0.4318 
      5 CA         28.8422   21.8221    1.2285 C.3       1 UNK         0.0824 
      6 C6         29.8509   22.2720    2.3172 C.3       12 UNK        -0.0944 
      7 S7         30.4554   23.9795    2.1143 S.3       12 UNK        -0.2672 
      8 C8         31.9965   23.7083    1.1887 C.3       12 UNK         0.0333 
      9 C9         32.6634   25.0339    0.8558 C.ar      12 UNK        -0.0807 
     10 C10        33.4561   25.6756    1.8108 C.ar      12 UNK        -0.0894 
     11 C11        34.0527   26.9110    1.5327 C.ar      12 UNK        -0.0804 
     12 C12        33.8626   27.4902    0.2720 C.ar      12 UNK        -0.0824 
     13 C13        33.0910   26.8478   -0.7037 C.ar      12 UNK        -0.0762 
     14 C14        32.4928   25.6187   -0.4027 C.ar      12 UNK        -0.0782 
     15 C15        32.9516   27.4537   -2.0976 C.3       12 UNK         0.0230 
     16 S16        31.2195   27.6662   -2.6290 S.3       12 UNK        -0.2608 
     17 C17        30.7569   29.2305   -1.8100 C.3       12 UNK        -0.0989 
     18 CA         29.2263   29.5041   -1.8408 C.3       5 UNK         0.0716 
     19 N          28.4255   28.3451   -1.4190 N.am      5 UNK        -0.4135 
     20 C          27.1839   28.0818   -1.8478 C.2       4 UNK         0.5031 
     21 O          26.5686   28.7963   -2.6399 O.2       4 UNK        -0.5229 
     22 CA         26.4962   26.8237   -1.2871 C.3       4 UNK         0.0329 
     23 CB         26.8062   25.6087   -2.1755 C.3       4 UNK        -0.2001 
     24 N          26.8087   26.4974    0.1113 N.am      4 UNK        -0.4303 
     25 C          26.6181   27.3098    1.1653 C.2       3 UNK         0.5044 
     26 O          26.3044   28.4966    1.0543 O.2       3 UNK        -0.5152 
     27 CA         26.8336   26.7053    2.5733 C.3       3 UNK         0.0319 
     28 CB         26.0996   27.4884    3.6811 C.3       3 UNK        -0.2001 
     29 N          26.5264   25.2715    2.6469 N.am      3 UNK        -0.4354 
     30 C          25.3566   24.6738    2.3673 C.2       2 UNK         0.4964 
     31 O          24.3147   25.2895    2.1367 O.2       2 UNK        -0.5047 
     32 CA         25.3480   23.1281    2.3109 C.3       2 UNK         0.0288 
     33 CB         24.3928   22.6024    1.2177 C.3       2 UNK        -0.2113 
     34 N          26.6684   22.4915    2.1597 N.am      2 UNK        -0.4145 
     35 C          27.5754   22.7048    1.1901 C.2       1 UNK         0.5006 
     36 O          27.4508   23.5537    0.3052 O.2       1 UNK        -0.5103 
     37 C          28.8780   30.7960   -1.0618 C.2       5 UNK         0.5055 
     38 O          29.5668   31.7998   -1.2504 O.2       5 UNK        -0.5220 
     39 N          27.8668   30.7609   -0.1754 N.am      6 UNK        -0.4450 
     40 CA         27.3630   31.8332    0.7009 C.3       6 UNK         0.0367 
     41 CB         26.9246   33.0794   -0.0934 C.3       6 UNK        -0.1929 
     42 C          28.3203   32.1995    1.8485 C.2       6 UNK         0.5070 
     43 O          27.8899   32.2534    2.9998 O.2       6 UNK        -0.5237 
     44 N          29.6057   32.3925    1.5288 N.am      7 UNK        -0.4739 
     45 CA         30.7092   32.4843    2.4923 C.3       7 UNK         0.0276 
     46 CB         31.8961   33.1974    1.8250 C.3       7 UNK        -0.1927 
     47 C          31.1420   31.1021    3.0197 C.2       7 UNK         0.5013 
     48 O          31.8787   31.0316    4.0037 O.2       7 UNK        -0.5193 
     49 N          30.6842   30.0378    2.3465 N.am      8 UNK        -0.4253 
     50 CA         30.8891   28.6297    2.6800 C.3       8 UNK         0.0242 
     51 CB         30.2478   27.7702    1.5836 C.3       8 UNK        -0.2000 
     52 C          30.3390   28.2350    4.0589 C.2       8 UNK         0.4948 
     53 O          29.5123   28.9480    4.6314 O.2       8 UNK        -0.5275 
     54 N          30.8302   27.0998    4.5718 N.am      9 UNK        -0.4246 
     55 CA         30.6086   26.5289    5.9083 C.3       9 UNK         0.0261 
     56 CB         29.1170   26.2499    6.1827 C.3       9 UNK        -0.1959 
     57 C          31.2587   27.3524    7.0372 C.2       9 UNK         0.5033 
     58 O          31.8938   26.7651    7.9139 O.2       9 UNK        -0.5390 
     59 N          31.1280   28.6844    6.9811 N.am      10 UNK        -0.4215 
     60 CA         31.8786   29.6393    7.7954 C.3       10 UNK         0.0240 
     61 CB         31.2014   31.0196    7.7371 C.3       10 UNK        -0.1982 
     62 C          33.3450   29.7073    7.3376 C.2       10 UNK         0.4970 
     63 O          34.2402   29.4341    8.1378 O.2       10 UNK        -0.4916 
     64 N          33.5508   30.0403    6.0548 N.am      11 UNK        -0.4279 
     65 CA         34.8433   30.0610    5.3468 C.3       11 UNK         0.1003 
     66 C          35.8795   31.0919    5.8903 C.2       11 UNK         0.5709 
     67 N          35.4627   32.1211    6.6187 N.am      11 UNK        -0.7358 
     68 O          37.0743   30.9833    5.6232 O.2       11 UNK        -0.4999 
     69 C69        35.4380   28.6371    5.1424 C.3       12 UNK        -0.0954 
     70 S70        34.2859   27.5260    4.2656 S.3       12 UNK        -0.2268 
     71 C71        34.9365   27.6129    2.5633 C.3       12 UNK         0.0203 
     72 H72        27.9396   17.9580    1.8459 H         1 UNK         0.0888 
     73 H73        26.5006   18.0243    0.8267 H         1 UNK         0.0888 
     74 H74        28.0500   17.5324    0.1371 H         1 UNK         0.0888 
     75 H75        28.7739   19.9821    2.2668 H         1 UNK         0.3017 
     76 H76        29.3321   21.9291    0.2580 H         1 UNK         0.0873 
     77 H77        29.4045   22.1918    3.3101 H         1 UNK         0.0745 
     78 H78        30.7108   21.6000    2.3270 H         1 UNK         0.0745 
     79 H79        31.7791   23.1504    0.2766 H         1 UNK         0.0705 
     80 H80        32.6739   23.0896    1.7794 H         1 UNK         0.0705 
     81 H81        33.6026   25.2093    2.7754 H         1 UNK         0.1334 
     82 H82        34.3354   28.4353    0.0419 H         1 UNK         0.1417 
     83 H83        31.8927   25.1188   -1.1511 H         1 UNK         0.1562 
     84 H84        33.4499   26.7925   -2.8078 H         1 UNK         0.0748 
     85 H85        33.4668   28.4133   -2.1645 H         1 UNK         0.0748 
     86 H86        31.2855   30.0348   -2.3259 H         1 UNK         0.0940 
     87 H87        31.1452   29.2409   -0.7929 H         1 UNK         0.0940 
     88 H88        28.9729   29.7147   -2.8822 H         1 UNK         0.0703 
     89 H89        28.8749   27.6790   -0.8095 H         1 UNK         0.3081 
     90 H90        25.4205   27.0055   -1.3322 H         1 UNK         0.0719 
     91 H91        27.8576   25.3239   -2.1163 H         1 UNK         0.0809 
     92 H92        26.2094   24.7437   -1.8852 H         1 UNK         0.0809 
     93 H93        26.5813   25.8180   -3.2224 H         1 UNK         0.0809 
     94 H94        27.0698   25.5311    0.2892 H         1 UNK         0.2990 
     95 H95        27.8987   26.7859    2.7828 H         1 UNK         0.0690 
     96 H96        26.2729   27.0452    4.6616 H         1 UNK         0.0788 
     97 H97        25.0233   27.5209    3.5103 H         1 UNK         0.0788 
     98 H98        26.4543   28.5192    3.7285 H         1 UNK         0.0788 
     99 H99        27.3188   24.6679    2.8148 H         1 UNK         0.2993 
    100 H100       24.9596   22.8002    3.2764 H         1 UNK         0.0949 
    101 H101       24.3699   21.5126    1.2014 H         1 UNK         0.0767 
    102 H102       23.3702   22.9421    1.3873 H         1 UNK         0.0767 
    103 H103       24.6905   22.9453    0.2259 H         1 UNK         0.0767 
    104 H104       26.8844   21.7836    2.8478 H         1 UNK         0.3013 
    105 H105       27.3766   29.8793   -0.0553 H         1 UNK         0.3121 
    106 H106       26.4672   31.4197    1.1678 H         1 UNK         0.0774 
    107 H107       26.4429   33.8052    0.5630 H         1 UNK         0.0815 
    108 H108       27.7661   33.5851   -0.5672 H         1 UNK         0.0815 
    109 H109       26.2070   32.8203   -0.8717 H         1 UNK         0.0815 
    110 H110       29.8481   32.3515    0.5411 H         1 UNK         0.2987 
    111 H111       30.3852   33.0760    3.3513 H         1 UNK         0.0949 
    112 H112       32.2622   32.6468    0.9574 H         1 UNK         0.0806 
    113 H113       31.6218   34.1998    1.4956 H         1 UNK         0.0806 
    114 H114       32.7298   33.3027    2.5208 H         1 UNK         0.0806 
    115 H115       30.0548   30.2325    1.5852 H         1 UNK         0.3010 
    116 H116       31.9641   28.4494    2.6897 H         1 UNK         0.0829 
    117 H117       30.8843   27.7159    0.7070 H         1 UNK         0.0813 
    118 H118       30.0977   26.7426    1.9064 H         1 UNK         0.0813 
    119 H119       29.2812   28.1669    1.2841 H         1 UNK         0.0813 
    120 H120       31.5178   26.6055    4.0189 H         1 UNK         0.3038 
    121 H121       31.1189   25.5644    5.8949 H         1 UNK         0.0769 
    122 H122       28.5331   27.1669    6.2644 H         1 UNK         0.0811 
    123 H123       28.9927   25.7061    7.1198 H         1 UNK         0.0811 
    124 H124       28.6764   25.6415    5.3929 H         1 UNK         0.0811 
    125 H125       30.5616   29.0569    6.2220 H         1 UNK         0.3204 
    126 H126       31.8636   29.2974    8.8326 H         1 UNK         0.0748 
    127 H127       31.7590   31.7531    8.3209 H         1 UNK         0.0771 
    128 H128       31.1280   31.3987    6.7169 H         1 UNK         0.0771 
    129 H129       30.1925   30.9793    8.1481 H         1 UNK         0.0771 
    130 H130       32.7593   30.3010    5.4711 H         1 UNK         0.2980 
    131 H131       34.6059   30.4409    4.3527 H         1 UNK         0.0545 
    132 H132       34.4848   32.2305    6.8327 H         1 UNK         0.3459 
    133 H133       36.1348   32.7906    6.9586 H         1 UNK         0.3459 
    134 H134       35.6859   28.1858    6.1041 H         1 UNK         0.0616 
    135 H135       36.3721   28.6801    4.5799 H         1 UNK         0.0616 
    136 H136       35.0579   28.6644    2.2981 H         1 UNK         0.0634 
    137 H137       35.9303   27.1644    2.5384 H         1 UNK         0.0634 
@<TRIPOS>BOND
     1    1    2 1    
     2    1   72 1    
     3    1   73 1    
     4    1   74 1    
     5    2    3 2    
     6    2    4 am   BACKBONE|DICT|INTERRES
     7    4    5 1    
     8    4   75 1    
     9    5    6 1    
    10    5   35 1    
    11    5   76 1    
    12    6    7 1    
    13    6   77 1    
    14    6   78 1    
    15    7    8 1    
    16    8    9 1    
    17    8   79 1    
    18    8   80 1    
    19    9   10 ar   
    20    9   14 ar   
    21   10   11 ar   
    22   10   81 1    
    23   11   12 ar   
    24   11   71 1    
    25   12   13 ar   
    26   12   82 1    
    27   13   14 ar   
    28   13   15 1    
    29   14   83 1    
    30   15   16 1    
    31   15   84 1    
    32   15   85 1    
    33   16   17 1    
    34   17   18 1    
    35   17   86 1    
    36   17   87 1    
    37   18   19 1    
    38   18   37 1    
    39   18   88 1    
    40   19   20 am   BACKBONE|DICT|INTERRES
    41   19   89 1    
    42   20   21 2    
    43   20   22 1    
    44   22   23 1    
    45   22   24 1    
    46   22   90 1    
    47   23   91 1    
    48   23   92 1    
    49   23   93 1    
    50   24   25 am   BACKBONE|DICT|INTERRES
    51   24   94 1    
    52   25   26 2    
    53   25   27 1    
    54   27   28 1    
    55   27   29 1    
    56   27   95 1    
    57   28   96 1    
    58   28   97 1    
    59   28   98 1    
    60   29   30 am   BACKBONE|DICT|INTERRES
    61   29   99 1    
    62   30   31 2    
    63   30   32 1    
    64   32   33 1    
    65   32   34 1    
    66   32  100 1    
    67   33  101 1    
    68   33  102 1    
    69   33  103 1    
    70   34   35 am   BACKBONE|DICT|INTERRES
    71   34  104 1    
    72   35   36 2    
    73   37   38 2    
    74   37   39 am   BACKBONE|DICT|INTERRES
    75   39   40 1    
    76   39  105 1    
    77   40   41 1    
    78   40   42 1    
    79   40  106 1    
    80   41  107 1    
    81   41  108 1    
    82   41  109 1    
    83   42   43 2    
    84   42   44 am   BACKBONE|DICT|INTERRES
    85   44   45 1    
    86   44  110 1    
    87   45   46 1    
    88   45   47 1    
    89   45  111 1    
    90   46  112 1    
    91   46  113 1    
    92   46  114 1    
    93   47   48 2    
    94   47   49 am   BACKBONE|DICT|INTERRES
    95   49   50 1    
    96   49  115 1    
    97   50   51 1    
    98   50   52 1    
    99   50  116 1    
   100   51  117 1    
   101   51  118 1    
   102   51  119 1    
   103   52   53 2    
   104   52   54 am   BACKBONE|DICT|INTERRES
   105   54   55 1    
   106   54  120 1    
   107   55   56 1    
   108   55   57 1    
   109   55  121 1    
   110   56  122 1    
   111   56  123 1    
   112   56  124 1    
   113   57   58 2    
   114   57   59 am   BACKBONE|DICT|INTERRES
   115   59   60 1    
   116   59  125 1    
   117   60   61 1    
   118   60   62 1    
   119   60  126 1    
   120   61  127 1    
   121   61  128 1    
   122   61  129 1    
   123   62   63 2    
   124   62   64 am   BACKBONE|DICT|INTERRES
   125   64   65 1    
   126   64  130 1    
   127   65   66 1    
   128   65   69 1    
   129   65  131 1    
   130   66   67 am   BACKBONE|DICT|INTERRES
   131   66   68 2    
   132   67  132 1    
   133   67  133 1    
   134   69   70 1    
   135   69  134 1    
   136   69  135 1    
   137   70   71 1    
   138   71  136 1    
   139   71  137 1    
@<TRIPOS>SUBSTRUCTURE
     1 UNK         1 GROUP             0       ****    0 ROOT    
