@<TRIPOS>MOLECULE
3R136
137   139    1
SMALL
USER_CHARGES


@<TRIPOS>ATOM
      1 CA         33.6543   22.9206   -0.9993 C.3       0 UNK        -0.1979 
      2 C          32.4443   23.6408   -0.4229 C.2       0 UNK         0.4864 
      3 O          32.5584   24.7980   -0.0195 O.2       0 UNK        -0.5359 
      4 N          31.2878   22.9641   -0.3842 N.am      1 UNK        -0.4318 
      5 CA         30.0270   23.4831    0.1642 C.3       1 UNK         0.0824 
      6 C6         28.9723   22.3672    0.3655 C.3       12 UNK        -0.0944 
      7 S7         29.5725   21.0013    1.4129 S.3       12 UNK        -0.2672 
      8 C8         28.6484   21.2852    2.9617 C.3       12 UNK         0.0333 
      9 C9         29.0986   22.5063    3.7636 C.ar      12 UNK        -0.0807 
     10 C10        30.4460   22.8849    3.8353 C.ar      12 UNK        -0.0894 
     11 C11        30.8435   23.9709    4.6219 C.ar      12 UNK        -0.0804 
     12 C12        29.8829   24.6659    5.3605 C.ar      12 UNK        -0.0824 
     13 C13        28.5355   24.3078    5.2952 C.ar      12 UNK        -0.0762 
     14 C14        28.1488   23.2295    4.4940 C.ar      12 UNK        -0.0782 
     15 C15        27.5127   25.0841    6.1111 C.3       12 UNK         0.0230 
     16 S16        27.2526   26.7577    5.4427 S.3       12 UNK        -0.2608 
     17 C17        26.1757   26.4166    4.0103 C.3       12 UNK        -0.0989 
     18 CA         26.9426   26.2578    2.6723 C.3       5 UNK         0.0716 
     19 N          26.0522   25.8789    1.5831 N.am      5 UNK        -0.4135 
     20 C          25.5943   24.6478    1.3449 C.2       4 UNK         0.5031 
     21 O          25.8241   23.6846    2.0768 O.2       4 UNK        -0.5229 
     22 CA         24.7368   24.4246    0.0836 C.3       4 UNK         0.0329 
     23 CB         23.2405   24.6256    0.3934 C.3       4 UNK        -0.2001 
     24 N          25.1483   25.1854   -1.1070 N.am      4 UNK        -0.4303 
     25 C          25.1072   26.5059   -1.3299 C.2       3 UNK         0.5044 
     26 O          24.7320   27.3306   -0.4952 O.2       3 UNK        -0.5152 
     27 CA         25.6134   26.9762   -2.7081 C.3       3 UNK         0.0319 
     28 CB         25.2783   28.4532   -2.9877 C.3       3 UNK        -0.2001 
     29 N          27.0599   26.7905   -2.8289 N.am      3 UNK        -0.4354 
     30 C          27.6802   25.6208   -3.0310 C.2       2 UNK         0.4964 
     31 O          27.0815   24.5598   -3.2236 O.2       2 UNK        -0.5047 
     32 CA         29.2221   25.6132   -2.9833 C.3       2 UNK         0.0288 
     33 CB         29.8577   27.0046   -2.7520 C.3       2 UNK        -0.2113 
     34 N          29.7196   24.6528   -1.9901 N.am      2 UNK        -0.4145 
     35 C          29.4199   24.6215   -0.6803 C.2       1 UNK         0.5006 
     36 O          28.6838   25.4361   -0.1272 O.2       1 UNK        -0.5103 
     37 C          27.6632   27.5400    2.2318 C.2       5 UNK         0.5055 
     38 O          27.0027   28.5579    2.0062 O.2       5 UNK        -0.5220 
     39 N          28.9970   27.4858    2.1218 N.am      6 UNK        -0.4450 
     40 CA         29.8436   28.5961    1.6804 C.3       6 UNK         0.0367 
     41 CB         31.0787   28.0399    0.9502 C.3       6 UNK        -0.1929 
     42 C          30.2045   29.5143    2.8613 C.2       6 UNK         0.5070 
     43 O          31.3813   29.7582    3.1316 O.2       6 UNK        -0.5237 
     44 N          29.1718   30.0154    3.5518 N.am      7 UNK        -0.4739 
     45 CA         29.2722   30.8900    4.7260 C.3       7 UNK         0.0276 
     46 CB         27.8800   31.0301    5.3624 C.3       7 UNK        -0.1927 
     47 C          29.8809   32.2750    4.4326 C.2       7 UNK         0.5013 
     48 O          30.2868   32.9666    5.3684 O.2       7 UNK        -0.5193 
     49 N          29.9563   32.6517    3.1484 N.am      8 UNK        -0.4253 
     50 CA         30.6581   33.8272    2.6357 C.3       8 UNK         0.0242 
     51 CB         30.1880   34.0970    1.1941 C.3       8 UNK        -0.2000 
     52 C          32.1849   33.6389    2.7293 C.2       8 UNK         0.4948 
     53 O          32.8429   33.3777    1.7201 O.2       8 UNK        -0.5275 
     54 N          32.7078   33.7361    3.9580 N.am      9 UNK        -0.4246 
     55 CA         34.1100   33.6557    4.3880 C.3       9 UNK         0.0261 
     56 CB         34.9644   34.7575    3.7305 C.3       9 UNK        -0.1959 
     57 C          34.7803   32.2780    4.2328 C.2       9 UNK         0.5033 
     58 O          35.5349   31.8956    5.1275 O.2       9 UNK        -0.5390 
     59 N          34.5141   31.5614    3.1323 N.am      10 UNK        -0.4215 
     60 CA         35.1471   30.2892    2.7581 C.3       10 UNK         0.0240 
     61 CB         34.5848   29.8080    1.4123 C.3       10 UNK        -0.1982 
     62 C          35.0444   29.1893    3.8305 C.2       10 UNK         0.4970 
     63 O          36.0700   28.6152    4.2007 O.2       10 UNK        -0.4916 
     64 N          33.8280   28.9532    4.3334 N.am      11 UNK        -0.4279 
     65 CA         33.5455   28.0854    5.4889 C.3       11 UNK         0.1003 
     66 C          33.4268   28.8802    6.8272 C.2       11 UNK         0.5709 
     67 N          33.8888   30.1226    6.9147 N.am      11 UNK        -0.7358 
     68 O          32.9215   28.3588    7.8215 O.2       11 UNK        -0.4999 
     69 C69        32.3174   27.1702    5.2300 C.3       12 UNK        -0.0954 
     70 S70        32.6108   25.9800    3.8741 S.3       12 UNK        -0.2268 
     71 C71        32.3106   24.3772    4.6875 C.3       12 UNK         0.0203 
     72 H72        34.0308   23.4579   -1.8694 H         1 UNK         0.0888 
     73 H73        34.4507   22.8738   -0.2567 H         1 UNK         0.0888 
     74 H74        33.4160   21.9018   -1.3054 H         1 UNK         0.0888 
     75 H75        31.2603   22.0059   -0.7038 H         1 UNK         0.3017 
     76 H76        30.2523   23.9135    1.1425 H         1 UNK         0.0873 
     77 H77        28.6734   21.9440   -0.5958 H         1 UNK         0.0745 
     78 H78        28.0630   22.7785    0.8078 H         1 UNK         0.0745 
     79 H79        28.7640   20.4044    3.5943 H         1 UNK         0.0705 
     80 H80        27.5851   21.3538    2.7246 H         1 UNK         0.0705 
     81 H81        31.1911   22.3288    3.2835 H         1 UNK         0.1334 
     82 H82        30.1733   25.4970    5.9854 H         1 UNK         0.1417 
     83 H83        27.1057   22.9460    4.4458 H         1 UNK         0.1562 
     84 H84        26.5623   24.5510    6.1668 H         1 UNK         0.0748 
     85 H85        27.8703   25.1707    7.1383 H         1 UNK         0.0748 
     86 H86        25.4445   27.2238    3.9340 H         1 UNK         0.0940 
     87 H87        25.5950   25.5165    4.2164 H         1 UNK         0.0940 
     88 H88        27.6893   25.4689    2.7820 H         1 UNK         0.0703 
     89 H89        25.7969   26.6242    0.9392 H         1 UNK         0.3081 
     90 H90        24.8715   23.3769   -0.1905 H         1 UNK         0.0719 
     91 H91        22.9223   23.9744    1.2087 H         1 UNK         0.0809 
     92 H92        23.0189   25.6498    0.6944 H         1 UNK         0.0809 
     93 H93        22.6207   24.3876   -0.4711 H         1 UNK         0.0809 
     94 H94        25.5782   24.6309   -1.8414 H         1 UNK         0.2990 
     95 H95        25.1134   26.3720   -3.4684 H         1 UNK         0.0690 
     96 H96        25.5874   28.7469   -3.9911 H         1 UNK         0.0788 
     97 H97        25.7662   29.1217   -2.2770 H         1 UNK         0.0788 
     98 H98        24.2041   28.6291   -2.9163 H         1 UNK         0.0788 
     99 H99        27.6326   27.5994   -2.6365 H         1 UNK         0.2993 
    100 H100       29.5539   25.2533   -3.9584 H         1 UNK         0.0949 
    101 H101       29.6051   27.6942   -3.5586 H         1 UNK         0.0767 
    102 H102       29.5345   27.4553   -1.8130 H         1 UNK         0.0767 
    103 H103       30.9454   26.9362   -2.7228 H         1 UNK         0.0767 
    104 H104       30.3101   23.9167   -2.3496 H         1 UNK         0.3013 
    105 H105       29.4716   26.6206    2.3403 H         1 UNK         0.3121 
    106 H106       29.2883   29.1984    0.9581 H         1 UNK         0.0774 
    107 H107       31.6134   28.8387    0.4374 H         1 UNK         0.0815 
    108 H108       31.7794   27.5611    1.6327 H         1 UNK         0.0815 
    109 H109       30.8035   27.3044    0.1956 H         1 UNK         0.0815 
    110 H110       28.2392   29.7530    3.2504 H         1 UNK         0.2987 
    111 H111       29.9324   30.4011    5.4461 H         1 UNK         0.0949 
    112 H112       27.9206   31.6458    6.2622 H         1 UNK         0.0806 
    113 H113       27.4783   30.0592    5.6544 H         1 UNK         0.0806 
    114 H114       27.1692   31.4966    4.6790 H         1 UNK         0.0806 
    115 H115       29.6115   31.9998    2.4597 H         1 UNK         0.3010 
    116 H116       30.3880   34.6923    3.2455 H         1 UNK         0.0829 
    117 H117       30.3959   33.2539    0.5337 H         1 UNK         0.0813 
    118 H118       29.1167   34.2962    1.1569 H         1 UNK         0.0813 
    119 H119       30.6934   34.9693    0.7772 H         1 UNK         0.0813 
    120 H120       32.0352   33.8226    4.7147 H         1 UNK         0.3038 
    121 H121       34.0884   33.8625    5.4595 H         1 UNK         0.0769 
    122 H122       35.9785   34.7549    4.1330 H         1 UNK         0.0811 
    123 H123       34.5459   35.7470    3.9149 H         1 UNK         0.0811 
    124 H124       35.0457   34.6231    2.6513 H         1 UNK         0.0811 
    125 H125       33.8826   31.9844    2.4556 H         1 UNK         0.3204 
    126 H126       36.2097   30.4974    2.6175 H         1 UNK         0.0748 
    127 H127       35.0184   28.8496    1.1229 H         1 UNK         0.0771 
    128 H128       33.5047   29.6791    1.4584 H         1 UNK         0.0771 
    129 H129       34.8021   30.5186    0.6146 H         1 UNK         0.0771 
    130 H130       33.0221   29.4323    3.9356 H         1 UNK         0.2980 
    131 H131       34.3971   27.4205    5.6492 H         1 UNK         0.0545 
    132 H132       34.3824   30.5578    6.1425 H         1 UNK         0.3459 
    133 H133       33.8057   30.6093    7.7941 H         1 UNK         0.3459 
    134 H134       32.0792   26.6102    6.1338 H         1 UNK         0.0616 
    135 H135       31.4308   27.7617    4.9979 H         1 UNK         0.0616 
    136 H136       32.6471   24.4053    5.7248 H         1 UNK         0.0634 
    137 H137       32.9305   23.6286    4.1919 H         1 UNK         0.0634 
@<TRIPOS>BOND
     1    1    2 1    
     2    1   72 1    
     3    1   73 1    
     4    1   74 1    
     5    2    3 2    
     6    2    4 am   BACKBONE|DICT|INTERRES
     7    4    5 1    
     8    4   75 1    
     9    5    6 1    
    10    5   35 1    
    11    5   76 1    
    12    6    7 1    
    13    6   77 1    
    14    6   78 1    
    15    7    8 1    
    16    8    9 1    
    17    8   79 1    
    18    8   80 1    
    19    9   10 ar   
    20    9   14 ar   
    21   10   11 ar   
    22   10   81 1    
    23   11   12 ar   
    24   11   71 1    
    25   12   13 ar   
    26   12   82 1    
    27   13   14 ar   
    28   13   15 1    
    29   14   83 1    
    30   15   16 1    
    31   15   84 1    
    32   15   85 1    
    33   16   17 1    
    34   17   18 1    
    35   17   86 1    
    36   17   87 1    
    37   18   19 1    
    38   18   37 1    
    39   18   88 1    
    40   19   20 am   BACKBONE|DICT|INTERRES
    41   19   89 1    
    42   20   21 2    
    43   20   22 1    
    44   22   23 1    
    45   22   24 1    
    46   22   90 1    
    47   23   91 1    
    48   23   92 1    
    49   23   93 1    
    50   24   25 am   BACKBONE|DICT|INTERRES
    51   24   94 1    
    52   25   26 2    
    53   25   27 1    
    54   27   28 1    
    55   27   29 1    
    56   27   95 1    
    57   28   96 1    
    58   28   97 1    
    59   28   98 1    
    60   29   30 am   BACKBONE|DICT|INTERRES
    61   29   99 1    
    62   30   31 2    
    63   30   32 1    
    64   32   33 1    
    65   32   34 1    
    66   32  100 1    
    67   33  101 1    
    68   33  102 1    
    69   33  103 1    
    70   34   35 am   BACKBONE|DICT|INTERRES
    71   34  104 1    
    72   35   36 2    
    73   37   38 2    
    74   37   39 am   BACKBONE|DICT|INTERRES
    75   39   40 1    
    76   39  105 1    
    77   40   41 1    
    78   40   42 1    
    79   40  106 1    
    80   41  107 1    
    81   41  108 1    
    82   41  109 1    
    83   42   43 2    
    84   42   44 am   BACKBONE|DICT|INTERRES
    85   44   45 1    
    86   44  110 1    
    87   45   46 1    
    88   45   47 1    
    89   45  111 1    
    90   46  112 1    
    91   46  113 1    
    92   46  114 1    
    93   47   48 2    
    94   47   49 am   BACKBONE|DICT|INTERRES
    95   49   50 1    
    96   49  115 1    
    97   50   51 1    
    98   50   52 1    
    99   50  116 1    
   100   51  117 1    
   101   51  118 1    
   102   51  119 1    
   103   52   53 2    
   104   52   54 am   BACKBONE|DICT|INTERRES
   105   54   55 1    
   106   54  120 1    
   107   55   56 1    
   108   55   57 1    
   109   55  121 1    
   110   56  122 1    
   111   56  123 1    
   112   56  124 1    
   113   57   58 2    
   114   57   59 am   BACKBONE|DICT|INTERRES
   115   59   60 1    
   116   59  125 1    
   117   60   61 1    
   118   60   62 1    
   119   60  126 1    
   120   61  127 1    
   121   61  128 1    
   122   61  129 1    
   123   62   63 2    
   124   62   64 am   BACKBONE|DICT|INTERRES
   125   64   65 1    
   126   64  130 1    
   127   65   66 1    
   128   65   69 1    
   129   65  131 1    
   130   66   67 am   BACKBONE|DICT|INTERRES
   131   66   68 2    
   132   67  132 1    
   133   67  133 1    
   134   69   70 1    
   135   69  134 1    
   136   69  135 1    
   137   70   71 1    
   138   71  136 1    
   139   71  137 1    
@<TRIPOS>SUBSTRUCTURE
     1 UNK         1 GROUP             0       ****    0 ROOT    
