@<TRIPOS>MOLECULE
3R136
137   139    1
SMALL
USER_CHARGES


@<TRIPOS>ATOM
      1 CA         30.0337   19.6222   -3.5733 C.3       0 UNK        -0.1979 
      2 C          29.7512   20.8818   -2.7684 C.2       0 UNK         0.4864 
      3 O          29.9850   21.9885   -3.2585 O.2       0 UNK        -0.5359 
      4 N          29.2467   20.7287   -1.5363 N.am      1 UNK        -0.4318 
      5 CA         28.8847   21.8247   -0.6338 C.3       1 UNK         0.0824 
      6 C6         28.9186   21.3681    0.8485 C.3       12 UNK        -0.0944 
      7 S7         29.0419   22.7803    1.9982 S.3       12 UNK        -0.2672 
      8 C8         30.7648   22.6171    2.5633 C.3       12 UNK         0.0333 
      9 C9         31.1488   23.7600    3.4901 C.ar      12 UNK        -0.0807 
     10 C10        32.0196   24.7641    3.0586 C.ar      12 UNK        -0.0894 
     11 C11        32.3533   25.8268    3.9034 C.ar      12 UNK        -0.0804 
     12 C12        31.8219   25.8734    5.1968 C.ar      12 UNK        -0.0824 
     13 C13        30.9519   24.8710    5.6401 C.ar      12 UNK        -0.0762 
     14 C14        30.6271   23.8141    4.7843 C.ar      12 UNK        -0.0782 
     15 C15        30.3448   24.9237    7.0367 C.3       12 UNK         0.0230 
     16 S16        29.1458   26.2835    7.2518 S.3       12 UNK        -0.2608 
     17 C17        28.1414   26.2109    5.7254 C.3       12 UNK        -0.0989 
     18 CA         28.5590   27.3357    4.7387 C.3       5 UNK         0.0716 
     19 N          28.5813   26.8836    3.3429 N.am      5 UNK        -0.4135 
     20 C          29.1849   27.5547    2.3513 C.2       4 UNK         0.5031 
     21 O          29.8234   28.5930    2.5254 O.2       4 UNK        -0.5229 
     22 CA         28.9866   27.0437    0.9143 C.3       4 UNK         0.0329 
     23 CB         30.1780   26.1953    0.4507 C.3       4 UNK        -0.2001 
     24 N          27.7367   26.3090    0.6936 N.am      4 UNK        -0.4303 
     25 C          26.5053   26.8153    0.8588 C.2       3 UNK         0.5044 
     26 O          26.2978   27.9364    1.3268 O.2       3 UNK        -0.5152 
     27 CA         25.3154   25.9165    0.4656 C.3       3 UNK         0.0319 
     28 CB         24.0592   26.7336    0.0964 C.3       3 UNK        -0.2001 
     29 N          25.6368   24.9393   -0.5845 N.am      3 UNK        -0.4354 
     30 C          26.0363   25.1832   -1.8422 C.2       2 UNK         0.4964 
     31 O          26.1679   26.3124   -2.3167 O.2       2 UNK        -0.5047 
     32 CA         26.3904   23.9437   -2.6892 C.3       2 UNK         0.0288 
     33 CB         26.6834   24.2927   -4.1607 C.3       2 UNK        -0.2113 
     34 N          27.5436   23.2249   -2.1389 N.am      2 UNK        -0.4145 
     35 C          27.5309   22.4386   -1.0547 C.2       1 UNK         0.5006 
     36 O          26.5053   22.1917   -0.4152 O.2       1 UNK        -0.5103 
     37 C          27.7310   28.6259    4.9524 C.2       5 UNK         0.5055 
     38 O          27.9660   29.3295    5.9346 O.2       5 UNK        -0.5220 
     39 N          26.7948   28.9262    4.0411 N.am      6 UNK        -0.4450 
     40 CA         26.0358   30.1757    4.0228 C.3       6 UNK         0.0367 
     41 CB         24.5646   29.8788    3.6861 C.3       6 UNK        -0.1929 
     42 C          26.6344   31.1603    3.0079 C.2       6 UNK         0.5070 
     43 O          26.7666   32.3431    3.3217 O.2       6 UNK        -0.5237 
     44 N          26.9660   30.6648    1.8066 N.am      7 UNK        -0.4739 
     45 CA         27.4235   31.4760    0.6763 C.3       7 UNK         0.0276 
     46 CB         27.3030   30.6604   -0.6210 C.3       7 UNK        -0.1927 
     47 C          28.8463   32.0372    0.8370 C.2       7 UNK         0.5013 
     48 O          29.0857   33.1684    0.4118 O.2       7 UNK        -0.5193 
     49 N          29.7576   31.2515    1.4267 N.am      8 UNK        -0.4253 
     50 CA         31.1538   31.6314    1.6588 C.3       8 UNK         0.0242 
     51 CB         32.0918   30.6305    0.9606 C.3       8 UNK        -0.2000 
     52 C          31.4646   31.7103    3.1577 C.2       8 UNK         0.4948 
     53 O          32.1186   32.6638    3.5818 O.2       8 UNK        -0.5275 
     54 N          31.0134   30.7084    3.9287 N.am      9 UNK        -0.4246 
     55 CA         31.1572   30.5270    5.3827 C.3       9 UNK         0.0261 
     56 CB         30.4803   31.6679    6.1676 C.3       9 UNK        -0.1959 
     57 C          32.6044   30.2996    5.8515 C.2       9 UNK         0.5033 
     58 O          32.8828   29.2829    6.4864 O.2       9 UNK        -0.5390 
     59 N          33.5017   31.2282    5.5036 N.am      10 UNK        -0.4215 
     60 CA         34.9466   31.1507    5.7358 C.3       10 UNK         0.0240 
     61 CB         35.5170   32.5790    5.7624 C.3       10 UNK        -0.1982 
     62 C          35.6801   30.2921    4.6862 C.2       10 UNK         0.4970 
     63 O          36.8746   30.0428    4.8509 O.2       10 UNK        -0.4916 
     64 N          34.9653   29.8798    3.6293 N.am      11 UNK        -0.4279 
     65 CA         35.4439   29.0745    2.4922 C.3       11 UNK         0.1003 
     66 C          36.3953   29.8338    1.5171 C.2       11 UNK         0.5709 
     67 N          36.5040   31.1553    1.5903 N.am      11 UNK        -0.7358 
     68 O          37.0197   29.2222    0.6534 O.2       11 UNK        -0.4999 
     69 C69        36.0081   27.6802    2.9045 C.3       12 UNK        -0.0954 
     70 S70        34.9734   26.6634    4.0194 S.3       12 UNK        -0.2268 
     71 C71        33.2804   26.9252    3.4090 C.3       12 UNK         0.0203 
     72 H72        31.0892   19.5772   -3.8404 H         1 UNK         0.0888 
     73 H73        29.7858   18.7183   -3.0172 H         1 UNK         0.0888 
     74 H74        29.4490   19.6262   -4.4928 H         1 UNK         0.0888 
     75 H75        29.0468   19.7981   -1.1970 H         1 UNK         0.3017 
     76 H76        29.6420   22.6047   -0.7466 H         1 UNK         0.0873 
     77 H77        28.0438   20.7686    1.1077 H         1 UNK         0.0745 
     78 H78        29.7760   20.7140    1.0155 H         1 UNK         0.0745 
     79 H79        30.8887   21.6670    3.0852 H         1 UNK         0.0705 
     80 H80        31.4269   22.5864    1.6964 H         1 UNK         0.0705 
     81 H81        32.4322   24.7242    2.0598 H         1 UNK         0.1334 
     82 H82        32.0752   26.6957    5.8531 H         1 UNK         0.1417 
     83 H83        29.9504   23.0380    5.1157 H         1 UNK         0.1562 
     84 H84        31.1429   25.0382    7.7714 H         1 UNK         0.0748 
     85 H85        29.8469   23.9825    7.2753 H         1 UNK         0.0748 
     86 H86        27.0845   26.2758    5.9927 H         1 UNK         0.0940 
     87 H87        28.2556   25.2251    5.2744 H         1 UNK         0.0940 
     88 H88        29.5921   27.6104    4.9580 H         1 UNK         0.0703 
     89 H89        28.0823   26.0349    3.1219 H         1 UNK         0.3081 
     90 H90        28.9535   27.9277    0.2767 H         1 UNK         0.0719 
     91 H91        30.2171   25.2402    0.9699 H         1 UNK         0.0809 
     92 H92        30.1258   25.9913   -0.6189 H         1 UNK         0.0809 
     93 H93        31.1223   26.7098    0.6353 H         1 UNK         0.0809 
     94 H94        27.8181   25.3730    0.3263 H         1 UNK         0.2990 
     95 H95        25.0770   25.3334    1.3561 H         1 UNK         0.0690 
     96 H96        23.2259   26.0832   -0.1692 H         1 UNK         0.0788 
     97 H97        24.2445   27.4035   -0.7439 H         1 UNK         0.0788 
     98 H98        23.7322   27.3501    0.9348 H         1 UNK         0.0788 
     99 H99        25.6201   23.9637   -0.2978 H         1 UNK         0.2993 
    100 H100       25.5224   23.2807   -2.6720 H         1 UNK         0.0949 
    101 H101       26.8684   23.3950   -4.7511 H         1 UNK         0.0767 
    102 H102       25.8377   24.8100   -4.6159 H         1 UNK         0.0767 
    103 H103       27.5548   24.9419   -4.2569 H         1 UNK         0.0767 
    104 H104       28.4204   23.3149   -2.6408 H         1 UNK         0.3013 
    105 H105       26.6744   28.3225    3.2345 H         1 UNK         0.3121 
    106 H106       26.0614   30.6522    5.0054 H         1 UNK         0.0774 
    107 H107       24.4545   29.4090    2.7080 H         1 UNK         0.0815 
    108 H108       23.9757   30.7969    3.6743 H         1 UNK         0.0815 
    109 H109       24.1164   29.2164    4.4268 H         1 UNK         0.0815 
    110 H110       26.7787   29.6826    1.6159 H         1 UNK         0.2987 
    111 H111       26.7492   32.3315    0.5924 H         1 UNK         0.0949 
    112 H112       27.9571   29.7897   -0.6162 H         1 UNK         0.0806 
    113 H113       26.2825   30.3095   -0.7768 H         1 UNK         0.0806 
    114 H114       27.5737   31.2650   -1.4876 H         1 UNK         0.0806 
    115 H115       29.4777   30.3350    1.7618 H         1 UNK         0.3010 
    116 H116       31.3552   32.6192    1.2388 H         1 UNK         0.0829 
    117 H117       31.9840   29.6190    1.3531 H         1 UNK         0.0813 
    118 H118       31.8961   30.5922   -0.1111 H         1 UNK         0.0813 
    119 H119       33.1348   30.9238    1.0858 H         1 UNK         0.0813 
    120 H120       30.5441   29.9382    3.4530 H         1 UNK         0.3038 
    121 H121       30.6171   29.6108    5.6189 H         1 UNK         0.0769 
    122 H122       30.5090   31.4700    7.2397 H         1 UNK         0.0811 
    123 H123       30.9642   32.6306    6.0018 H         1 UNK         0.0811 
    124 H124       29.4317   31.7684    5.8865 H         1 UNK         0.0811 
    125 H125       33.1593   32.0048    4.9382 H         1 UNK         0.3204 
    126 H126       35.1228   30.6919    6.7110 H         1 UNK         0.0748 
    127 H127       36.5891   32.5707    5.9642 H         1 UNK         0.0771 
    128 H128       35.3669   33.0920    4.8116 H         1 UNK         0.0771 
    129 H129       35.0477   33.1776    6.5435 H         1 UNK         0.0771 
    130 H130       33.9986   30.1595    3.5889 H         1 UNK         0.2980 
    131 H131       34.5570   28.8935    1.8864 H         1 UNK         0.0545 
    132 H132       37.1133   31.6342    0.9460 H         1 UNK         0.3459 
    133 H133       35.9983   31.6757    2.2877 H         1 UNK         0.3459 
    134 H134       36.1883   27.0776    2.0126 H         1 UNK         0.0616 
    135 H135       36.9825   27.7959    3.3814 H         1 UNK         0.0616 
    136 H136       33.2833   26.9460    2.3183 H         1 UNK         0.0634 
    137 H137       32.9115   27.8961    3.7418 H         1 UNK         0.0634 
@<TRIPOS>BOND
     1    1    2 1    
     2    1   72 1    
     3    1   73 1    
     4    1   74 1    
     5    2    3 2    
     6    2    4 am   BACKBONE|DICT|INTERRES
     7    4    5 1    
     8    4   75 1    
     9    5    6 1    
    10    5   35 1    
    11    5   76 1    
    12    6    7 1    
    13    6   77 1    
    14    6   78 1    
    15    7    8 1    
    16    8    9 1    
    17    8   79 1    
    18    8   80 1    
    19    9   10 ar   
    20    9   14 ar   
    21   10   11 ar   
    22   10   81 1    
    23   11   12 ar   
    24   11   71 1    
    25   12   13 ar   
    26   12   82 1    
    27   13   14 ar   
    28   13   15 1    
    29   14   83 1    
    30   15   16 1    
    31   15   84 1    
    32   15   85 1    
    33   16   17 1    
    34   17   18 1    
    35   17   86 1    
    36   17   87 1    
    37   18   19 1    
    38   18   37 1    
    39   18   88 1    
    40   19   20 am   BACKBONE|DICT|INTERRES
    41   19   89 1    
    42   20   21 2    
    43   20   22 1    
    44   22   23 1    
    45   22   24 1    
    46   22   90 1    
    47   23   91 1    
    48   23   92 1    
    49   23   93 1    
    50   24   25 am   BACKBONE|DICT|INTERRES
    51   24   94 1    
    52   25   26 2    
    53   25   27 1    
    54   27   28 1    
    55   27   29 1    
    56   27   95 1    
    57   28   96 1    
    58   28   97 1    
    59   28   98 1    
    60   29   30 am   BACKBONE|DICT|INTERRES
    61   29   99 1    
    62   30   31 2    
    63   30   32 1    
    64   32   33 1    
    65   32   34 1    
    66   32  100 1    
    67   33  101 1    
    68   33  102 1    
    69   33  103 1    
    70   34   35 am   BACKBONE|DICT|INTERRES
    71   34  104 1    
    72   35   36 2    
    73   37   38 2    
    74   37   39 am   BACKBONE|DICT|INTERRES
    75   39   40 1    
    76   39  105 1    
    77   40   41 1    
    78   40   42 1    
    79   40  106 1    
    80   41  107 1    
    81   41  108 1    
    82   41  109 1    
    83   42   43 2    
    84   42   44 am   BACKBONE|DICT|INTERRES
    85   44   45 1    
    86   44  110 1    
    87   45   46 1    
    88   45   47 1    
    89   45  111 1    
    90   46  112 1    
    91   46  113 1    
    92   46  114 1    
    93   47   48 2    
    94   47   49 am   BACKBONE|DICT|INTERRES
    95   49   50 1    
    96   49  115 1    
    97   50   51 1    
    98   50   52 1    
    99   50  116 1    
   100   51  117 1    
   101   51  118 1    
   102   51  119 1    
   103   52   53 2    
   104   52   54 am   BACKBONE|DICT|INTERRES
   105   54   55 1    
   106   54  120 1    
   107   55   56 1    
   108   55   57 1    
   109   55  121 1    
   110   56  122 1    
   111   56  123 1    
   112   56  124 1    
   113   57   58 2    
   114   57   59 am   BACKBONE|DICT|INTERRES
   115   59   60 1    
   116   59  125 1    
   117   60   61 1    
   118   60   62 1    
   119   60  126 1    
   120   61  127 1    
   121   61  128 1    
   122   61  129 1    
   123   62   63 2    
   124   62   64 am   BACKBONE|DICT|INTERRES
   125   64   65 1    
   126   64  130 1    
   127   65   66 1    
   128   65   69 1    
   129   65  131 1    
   130   66   67 am   BACKBONE|DICT|INTERRES
   131   66   68 2    
   132   67  132 1    
   133   67  133 1    
   134   69   70 1    
   135   69  134 1    
   136   69  135 1    
   137   70   71 1    
   138   71  136 1    
   139   71  137 1    
@<TRIPOS>SUBSTRUCTURE
     1 UNK         1 GROUP             0       ****    0 ROOT    
