@<TRIPOS>MOLECULE
3R136
137   139    1
SMALL
USER_CHARGES


@<TRIPOS>ATOM
      1 CA         30.1833   29.3002   -2.5939 C.3       0 UNK        -0.1979 
      2 C          31.0900   28.0830   -2.4277 C.2       0 UNK         0.4864 
      3 O          32.1059   27.9890   -3.1133 O.2       0 UNK        -0.5359 
      4 N          30.7728   27.1285   -1.5398 N.am      1 UNK        -0.4318 
      5 CA         29.5842   27.0792   -0.6764 C.3       1 UNK         0.0824 
      6 C6         29.8800   26.3315    0.6434 C.3       12 UNK        -0.0944 
      7 S7         30.2982   24.5603    0.4500 S.3       12 UNK        -0.2672 
      8 C8         31.4678   24.3073    1.8265 C.3       12 UNK         0.0333 
      9 C9         30.8495   24.7010    3.1599 C.ar      12 UNK        -0.0807 
     10 C10        31.1467   25.9425    3.7282 C.ar      12 UNK        -0.0894 
     11 C11        30.5178   26.3552    4.9040 C.ar      12 UNK        -0.0804 
     12 C12        29.6036   25.5030    5.5305 C.ar      12 UNK        -0.0824 
     13 C13        29.3110   24.2492    4.9812 C.ar      12 UNK        -0.0762 
     14 C14        29.9448   23.8493    3.8001 C.ar      12 UNK        -0.0782 
     15 C15        28.2747   23.3452    5.6350 C.3       12 UNK         0.0230 
     16 S16        26.7214   23.2881    4.6783 S.3       12 UNK        -0.2608 
     17 C17        26.2188   25.0432    4.6853 C.3       12 UNK        -0.0989 
     18 CA         26.6228   25.7621    3.3671 C.3       5 UNK         0.0716 
     19 N          25.9698   25.2244    2.1697 N.am      5 UNK        -0.4135 
     20 C          24.6621   25.2725    1.8761 C.2       4 UNK         0.5031 
     21 O          23.8024   25.7300    2.6302 O.2       4 UNK        -0.5229 
     22 CA         24.2369   24.7532    0.4924 C.3       4 UNK         0.0329 
     23 CB         23.6599   25.9018   -0.3539 C.3       4 UNK        -0.2001 
     24 N          25.3560   24.1637   -0.2430 N.am      4 UNK        -0.4303 
     25 C          25.6293   22.8549   -0.3387 C.2       3 UNK         0.5044 
     26 O          24.9610   21.9803    0.2141 O.2       3 UNK        -0.5152 
     27 CA         26.8681   22.4509   -1.1716 C.3       3 UNK         0.0319 
     28 CB         26.6200   21.1822   -2.0147 C.3       3 UNK        -0.2001 
     29 N          27.4114   23.5399   -1.9978 N.am      3 UNK        -0.4354 
     30 C          26.7986   24.1945   -2.9989 C.2       2 UNK         0.4964 
     31 O          25.7098   23.8612   -3.4681 O.2       2 UNK        -0.5047 
     32 CA         27.4958   25.4623   -3.5357 C.3       2 UNK         0.0288 
     33 CB         26.4803   26.5511   -3.9459 C.3       2 UNK        -0.2113 
     34 N          28.5069   26.0305   -2.6305 N.am      2 UNK        -0.4145 
     35 C          28.3346   26.5104   -1.3857 C.2       1 UNK         0.5006 
     36 O          27.2599   26.4896   -0.7791 O.2       1 UNK        -0.5103 
     37 C          26.5056   27.2991    3.4380 C.2       5 UNK         0.5055 
     38 O          26.2910   27.8586    4.5159 O.2       5 UNK        -0.5220 
     39 N          26.6665   27.9586    2.2797 N.am      6 UNK        -0.4450 
     40 CA         26.8257   29.4097    2.1759 C.3       6 UNK         0.0367 
     41 CB         26.6975   29.8270    0.7017 C.3       6 UNK        -0.1929 
     42 C          28.1773   29.8579    2.7619 C.2       6 UNK         0.5070 
     43 O          29.1139   29.0570    2.8288 O.2       6 UNK        -0.5237 
     44 N          28.2580   31.1330    3.1634 N.am      7 UNK        -0.4739 
     45 CA         29.4069   31.7580    3.8313 C.3       7 UNK         0.0276 
     46 CB         28.9414   33.0677    4.4950 C.3       7 UNK        -0.1927 
     47 C          30.6273   31.9650    2.9088 C.2       7 UNK         0.5013 
     48 O          31.0481   33.0996    2.6728 O.2       7 UNK        -0.5193 
     49 N          31.1683   30.8531    2.4036 N.am      8 UNK        -0.4253 
     50 CA         32.4173   30.7619    1.6517 C.3       8 UNK         0.0242 
     51 CB         32.4733   29.3754    0.9879 C.3       8 UNK        -0.2000 
     52 C          33.6414   30.9718    2.5590 C.2       8 UNK         0.4948 
     53 O          33.5240   30.9204    3.7870 O.2       8 UNK        -0.5275 
     54 N          34.8176   31.1288    1.9353 N.am      9 UNK        -0.4246 
     55 CA         36.1219   31.3198    2.5894 C.3       9 UNK         0.0261 
     56 CB         37.1986   31.5212    1.5101 C.3       9 UNK        -0.1959 
     57 C          36.5426   30.2006    3.5656 C.2       9 UNK         0.5033 
     58 O          37.4076   30.4366    4.4100 O.2       9 UNK        -0.5390 
     59 N          35.9146   29.0212    3.4554 N.am      10 UNK        -0.4215 
     60 CA         36.0174   27.9148    4.4088 C.3       10 UNK         0.0240 
     61 CB         35.3063   26.6814    3.8272 C.3       10 UNK        -0.1982 
     62 C          35.4493   28.2501    5.8026 C.2       10 UNK         0.4970 
     63 O          35.9412   27.6963    6.7870 O.2       10 UNK        -0.4916 
     64 N          34.4455   29.1365    5.8629 N.am      11 UNK        -0.4279 
     65 CA         33.8341   29.6348    7.1052 C.3       11 UNK         0.1003 
     66 C          34.1675   31.1289    7.3575 C.2       11 UNK         0.5709 
     67 N          34.3028   31.9562    6.3277 N.am      11 UNK        -0.7358 
     68 O          34.3150   31.5413    8.5056 O.2       11 UNK        -0.4999 
     69 C69        32.2989   29.4153    7.1361 C.3       12 UNK        -0.0954 
     70 S70        31.8378   27.6599    6.9520 S.3       12 UNK        -0.2268 
     71 C71        30.7972   27.7401    5.4652 C.3       12 UNK         0.0203 
     72 H72        29.1585   29.0064   -2.8179 H         1 UNK         0.0888 
     73 H73        30.1869   29.9112   -1.6916 H         1 UNK         0.0888 
     74 H74        30.5320   29.9245   -3.4164 H         1 UNK         0.0888 
     75 H75        31.3977   26.3402   -1.4395 H         1 UNK         0.3017 
     76 H76        29.3289   28.0994   -0.3906 H         1 UNK         0.0873 
     77 H77        29.0374   26.4144    1.3309 H         1 UNK         0.0745 
     78 H78        30.7065   26.8377    1.1415 H         1 UNK         0.0745 
     79 H79        31.7665   23.2585    1.8534 H         1 UNK         0.0705 
     80 H80        32.3767   24.8809    1.6376 H         1 UNK         0.0705 
     81 H81        31.8409   26.6066    3.2336 H         1 UNK         0.1334 
     82 H82        29.1082   25.8275    6.4354 H         1 UNK         0.1417 
     83 H83        29.7010   22.8931    3.3569 H         1 UNK         0.1562 
     84 H84        28.0591   23.6732    6.6531 H         1 UNK         0.0748 
     85 H85        28.6770   22.3346    5.7186 H         1 UNK         0.0748 
     86 H86        26.6700   25.5280    5.5525 H         1 UNK         0.0940 
     87 H87        25.1412   25.1011    4.8447 H         1 UNK         0.0940 
     88 H88        27.6870   25.5863    3.2133 H         1 UNK         0.0703 
     89 H89        26.5848   24.8173    1.4813 H         1 UNK         0.3081 
     90 H90        23.4530   24.0085    0.6450 H         1 UNK         0.0719 
     91 H91        24.3931   26.6943   -0.5123 H         1 UNK         0.0809 
     92 H92        23.3348   25.5474   -1.3324 H         1 UNK         0.0809 
     93 H93        22.7926   26.3510    0.1319 H         1 UNK         0.0809 
     94 H94        25.9696   24.8209   -0.7127 H         1 UNK         0.2990 
     95 H95        27.6471   22.2139   -0.4454 H         1 UNK         0.0690 
     96 H96        27.5050   20.9075   -2.5884 H         1 UNK         0.0788 
     97 H97        25.7934   21.3131   -2.7135 H         1 UNK         0.0788 
     98 H98        26.3722   20.3319   -1.3782 H         1 UNK         0.0788 
     99 H99        28.3091   23.8953   -1.6980 H         1 UNK         0.2993 
    100 H100       28.0290   25.1499   -4.4350 H         1 UNK         0.0949 
    101 H101       25.8128   26.1922   -4.7304 H         1 UNK         0.0767 
    102 H102       25.8568   26.8600   -3.1059 H         1 UNK         0.0767 
    103 H103       26.9831   27.4370   -4.3339 H         1 UNK         0.0767 
    104 H104       29.4465   26.0590   -3.0026 H         1 UNK         0.3013 
    105 H105       26.8325   27.4260    1.4369 H         1 UNK         0.3121 
    106 H106       26.0242   29.8837    2.7467 H         1 UNK         0.0774 
    107 H107       26.7562   30.9108    0.5943 H         1 UNK         0.0815 
    108 H108       27.4864   29.3979    0.0861 H         1 UNK         0.0815 
    109 H109       25.7409   29.5134    0.2829 H         1 UNK         0.0815 
    110 H110       27.4517   31.7267    3.0297 H         1 UNK         0.2987 
    111 H111       29.7345   31.0874    4.6294 H         1 UNK         0.0949 
    112 H112       29.7596   33.5424    5.0387 H         1 UNK         0.0806 
    113 H113       28.5779   33.7866    3.7597 H         1 UNK         0.0806 
    114 H114       28.1419   32.8873    5.2139 H         1 UNK         0.0806 
    115 H115       30.6898   29.9806    2.6163 H         1 UNK         0.3010 
    116 H116       32.4159   31.5350    0.8805 H         1 UNK         0.0829 
    117 H117       31.5874   29.1995    0.3799 H         1 UNK         0.0813 
    118 H118       33.3374   29.2791    0.3295 H         1 UNK         0.0813 
    119 H119       32.5316   28.5755    1.7272 H         1 UNK         0.0813 
    120 H120       34.8246   31.1416    0.9250 H         1 UNK         0.3038 
    121 H121       36.0532   32.2373    3.1775 H         1 UNK         0.0769 
    122 H122       38.1763   31.6991    1.9608 H         1 UNK         0.0811 
    123 H123       36.9755   32.3826    0.8804 H         1 UNK         0.0811 
    124 H124       37.2923   30.6465    0.8653 H         1 UNK         0.0811 
    125 H125       35.2374   28.9204    2.7148 H         1 UNK         0.3204 
    126 H126       37.0761   27.6771    4.5322 H         1 UNK         0.0748 
    127 H127       35.3900   25.8286    4.5027 H         1 UNK         0.0771 
    128 H128       34.2432   26.8660    3.6693 H         1 UNK         0.0771 
    129 H129       35.7426   26.3817    2.8742 H         1 UNK         0.0771 
    130 H130       34.1274   29.5897    5.0122 H         1 UNK         0.2980 
    131 H131       34.2472   29.0897    7.9559 H         1 UNK         0.0545 
    132 H132       34.1051   31.6395    5.3825 H         1 UNK         0.3459 
    133 H133       34.5261   32.9230    6.4991 H         1 UNK         0.3459 
    134 H134       31.8151   30.0093    6.3581 H         1 UNK         0.0616 
    135 H135       31.8848   29.7636    8.0841 H         1 UNK         0.0616 
    136 H136       31.2896   28.3589    4.7126 H         1 UNK         0.0634 
    137 H137       29.8559   28.2373    5.7046 H         1 UNK         0.0634 
@<TRIPOS>BOND
     1    1    2 1    
     2    1   72 1    
     3    1   73 1    
     4    1   74 1    
     5    2    3 2    
     6    2    4 am   BACKBONE|DICT|INTERRES
     7    4    5 1    
     8    4   75 1    
     9    5    6 1    
    10    5   35 1    
    11    5   76 1    
    12    6    7 1    
    13    6   77 1    
    14    6   78 1    
    15    7    8 1    
    16    8    9 1    
    17    8   79 1    
    18    8   80 1    
    19    9   10 ar   
    20    9   14 ar   
    21   10   11 ar   
    22   10   81 1    
    23   11   12 ar   
    24   11   71 1    
    25   12   13 ar   
    26   12   82 1    
    27   13   14 ar   
    28   13   15 1    
    29   14   83 1    
    30   15   16 1    
    31   15   84 1    
    32   15   85 1    
    33   16   17 1    
    34   17   18 1    
    35   17   86 1    
    36   17   87 1    
    37   18   19 1    
    38   18   37 1    
    39   18   88 1    
    40   19   20 am   BACKBONE|DICT|INTERRES
    41   19   89 1    
    42   20   21 2    
    43   20   22 1    
    44   22   23 1    
    45   22   24 1    
    46   22   90 1    
    47   23   91 1    
    48   23   92 1    
    49   23   93 1    
    50   24   25 am   BACKBONE|DICT|INTERRES
    51   24   94 1    
    52   25   26 2    
    53   25   27 1    
    54   27   28 1    
    55   27   29 1    
    56   27   95 1    
    57   28   96 1    
    58   28   97 1    
    59   28   98 1    
    60   29   30 am   BACKBONE|DICT|INTERRES
    61   29   99 1    
    62   30   31 2    
    63   30   32 1    
    64   32   33 1    
    65   32   34 1    
    66   32  100 1    
    67   33  101 1    
    68   33  102 1    
    69   33  103 1    
    70   34   35 am   BACKBONE|DICT|INTERRES
    71   34  104 1    
    72   35   36 2    
    73   37   38 2    
    74   37   39 am   BACKBONE|DICT|INTERRES
    75   39   40 1    
    76   39  105 1    
    77   40   41 1    
    78   40   42 1    
    79   40  106 1    
    80   41  107 1    
    81   41  108 1    
    82   41  109 1    
    83   42   43 2    
    84   42   44 am   BACKBONE|DICT|INTERRES
    85   44   45 1    
    86   44  110 1    
    87   45   46 1    
    88   45   47 1    
    89   45  111 1    
    90   46  112 1    
    91   46  113 1    
    92   46  114 1    
    93   47   48 2    
    94   47   49 am   BACKBONE|DICT|INTERRES
    95   49   50 1    
    96   49  115 1    
    97   50   51 1    
    98   50   52 1    
    99   50  116 1    
   100   51  117 1    
   101   51  118 1    
   102   51  119 1    
   103   52   53 2    
   104   52   54 am   BACKBONE|DICT|INTERRES
   105   54   55 1    
   106   54  120 1    
   107   55   56 1    
   108   55   57 1    
   109   55  121 1    
   110   56  122 1    
   111   56  123 1    
   112   56  124 1    
   113   57   58 2    
   114   57   59 am   BACKBONE|DICT|INTERRES
   115   59   60 1    
   116   59  125 1    
   117   60   61 1    
   118   60   62 1    
   119   60  126 1    
   120   61  127 1    
   121   61  128 1    
   122   61  129 1    
   123   62   63 2    
   124   62   64 am   BACKBONE|DICT|INTERRES
   125   64   65 1    
   126   64  130 1    
   127   65   66 1    
   128   65   69 1    
   129   65  131 1    
   130   66   67 am   BACKBONE|DICT|INTERRES
   131   66   68 2    
   132   67  132 1    
   133   67  133 1    
   134   69   70 1    
   135   69  134 1    
   136   69  135 1    
   137   70   71 1    
   138   71  136 1    
   139   71  137 1    
@<TRIPOS>SUBSTRUCTURE
     1 UNK         1 GROUP             0       ****    0 ROOT    
