@<TRIPOS>MOLECULE
3R136
137   139    1
SMALL
USER_CHARGES


@<TRIPOS>ATOM
      1 CA         33.4802   27.2197   -1.4393 C.3       0 UNK        -0.1979 
      2 C          33.1971   25.7974   -1.9145 C.2       0 UNK         0.4864 
      3 O          34.0147   25.2315   -2.6393 O.2       0 UNK        -0.5359 
      4 N          32.0695   25.1778   -1.5455 N.am      1 UNK        -0.4318 
      5 CA         30.9520   25.7224   -0.7684 C.3       1 UNK         0.0824 
      6 C6         30.8636   25.1112    0.6545 C.3       12 UNK        -0.0944 
      7 S7         32.3427   25.4436    1.6645 S.3       12 UNK        -0.2672 
      8 C8         31.9198   24.5801    3.2119 C.3       12 UNK         0.0333 
      9 C9         30.7653   25.2192    3.9787 C.ar      12 UNK        -0.0807 
     10 C10        30.7324   26.5999    4.2080 C.ar      12 UNK        -0.0894 
     11 C11        29.7100   27.1721    4.9712 C.ar      12 UNK        -0.0804 
     12 C12        28.7206   26.3487    5.5130 C.ar      12 UNK        -0.0824 
     13 C13        28.7235   24.9718    5.2739 C.ar      12 UNK        -0.0762 
     14 C14        29.7495   24.4132    4.5055 C.ar      12 UNK        -0.0782 
     15 C15        27.6344   24.0878    5.8714 C.3       12 UNK         0.0230 
     16 S16        26.2383   23.8221    4.7267 S.3       12 UNK        -0.2608 
     17 C17        25.5452   25.5041    4.5830 C.3       12 UNK        -0.0989 
     18 CA         25.9104   26.1378    3.2067 C.3       5 UNK         0.0716 
     19 N          24.9295   25.8673    2.1500 N.am      5 UNK        -0.4135 
     20 C          23.6457   26.2632    2.1176 C.2       4 UNK         0.5031 
     21 O          23.0918   26.8581    3.0430 O.2       4 UNK        -0.5229 
     22 CA         22.8252   25.9814    0.8398 C.3       4 UNK         0.0329 
     23 CB         22.3643   27.3008    0.1952 C.3       4 UNK        -0.2001 
     24 N          23.5434   25.2019   -0.1688 N.am      4 UNK        -0.4303 
     25 C          23.7913   23.8864   -0.1114 C.2       3 UNK         0.5044 
     26 O          23.3412   23.1415    0.7590 O.2       3 UNK        -0.5152 
     27 CA         24.7347   23.3133   -1.1884 C.3       3 UNK         0.0319 
     28 CB         23.9266   22.6071   -2.2890 C.3       3 UNK        -0.2001 
     29 N          25.6245   24.3088   -1.8059 N.am      3 UNK        -0.4354 
     30 C          26.5427   25.0347   -1.1520 C.2       2 UNK         0.4964 
     31 O          26.7263   24.9735    0.0666 O.2       2 UNK        -0.5047 
     32 CA         27.3222   26.0633   -1.9838 C.3       2 UNK         0.0288 
     33 CB         26.5679   27.4032   -2.0074 C.3       2 UNK        -0.2113 
     34 N          28.6556   26.2757   -1.4219 N.am      2 UNK        -0.4145 
     35 C          29.6670   25.4098   -1.5520 C.2       1 UNK         0.5006 
     36 O          29.6069   24.3861   -2.2418 O.2       1 UNK        -0.5103 
     37 C          26.2381   27.6442    3.2500 C.2       5 UNK         0.5055 
     38 O          25.9923   28.3234    4.2489 O.2       5 UNK        -0.5220 
     39 N          26.7922   28.1286    2.1340 N.am      6 UNK        -0.4450 
     40 CA         27.3347   29.4693    1.9531 C.3       6 UNK         0.0367 
     41 CB         26.3342   30.3280    1.1624 C.3       6 UNK        -0.1929 
     42 C          28.6579   29.3217    1.1946 C.2       6 UNK         0.5070 
     43 O          28.8006   28.3823    0.4056 O.2       6 UNK        -0.5237 
     44 N          29.5997   30.2375    1.4342 N.am      7 UNK        -0.4739 
     45 CA         30.9327   30.2281    0.8380 C.3       7 UNK         0.0276 
     46 CB         31.7882   29.1253    1.4913 C.3       7 UNK        -0.1927 
     47 C          31.6025   31.5887    1.0499 C.2       7 UNK         0.5013 
     48 O          31.2666   32.2926    2.0059 O.2       7 UNK        -0.5193 
     49 N          32.5738   31.9022    0.1825 N.am      8 UNK        -0.4253 
     50 CA         33.5391   32.9887    0.3855 C.3       8 UNK         0.0242 
     51 CB         34.0270   33.4967   -0.9816 C.3       8 UNK        -0.2000 
     52 C          34.7333   32.5377    1.2510 C.2       8 UNK         0.4948 
     53 O          35.3857   33.3804    1.8689 O.2       8 UNK        -0.5275 
     54 N          34.9986   31.2234    1.2727 N.am      9 UNK        -0.4246 
     55 CA         35.9864   30.5591    2.1234 C.3       9 UNK         0.0261 
     56 CB         36.2767   29.1680    1.5302 C.3       9 UNK        -0.1959 
     57 C          35.4892   30.4326    3.5752 C.2       9 UNK         0.5033 
     58 O          34.3021   30.6326    3.8425 O.2       9 UNK        -0.5390 
     59 N          36.4058   30.0761    4.4852 N.am      10 UNK        -0.4215 
     60 CA         36.1154   29.8141    5.8970 C.3       10 UNK         0.0240 
     61 CB         37.4340   29.6239    6.6654 C.3       10 UNK        -0.1982 
     62 C          35.1997   28.5887    6.0691 C.2       10 UNK         0.4970 
     63 O          35.5148   27.5162    5.5489 O.2       10 UNK        -0.4916 
     64 N          34.0957   28.7801    6.7967 N.am      11 UNK        -0.4279 
     65 CA         33.0485   27.7715    7.0307 C.3       11 UNK         0.1003 
     66 C          33.3582   26.7830    8.1922 C.2       11 UNK         0.5709 
     67 N          34.4369   26.9565    8.9474 N.am      11 UNK        -0.7358 
     68 O          32.6113   25.8317    8.4071 O.2       11 UNK        -0.4999 
     69 C69        31.6622   28.4470    7.2089 C.3       12 UNK        -0.0954 
     70 S70        31.2068   29.4342    5.7405 S.3       12 UNK        -0.2268 
     71 C71        29.6390   28.6778    5.2051 C.3       12 UNK         0.0203 
     72 H72        32.7444   27.9174   -1.8377 H         1 UNK         0.0888 
     73 H73        33.4693   27.2706   -0.3523 H         1 UNK         0.0888 
     74 H74        34.4645   27.5465   -1.7741 H         1 UNK         0.0888 
     75 H75        31.8763   24.2603   -1.9248 H         1 UNK         0.3017 
     76 H76        31.0259   26.8072   -0.6842 H         1 UNK         0.0873 
     77 H77        30.7191   24.0301    0.6034 H         1 UNK         0.0745 
     78 H78        29.9974   25.5141    1.1846 H         1 UNK         0.0745 
     79 H79        32.7994   24.5772    3.8568 H         1 UNK         0.0705 
     80 H80        31.7041   23.5358    2.9807 H         1 UNK         0.0705 
     81 H81        31.5123   27.2292    3.8031 H         1 UNK         0.1334 
     82 H82        27.9379   26.7868    6.1162 H         1 UNK         0.1417 
     83 H83        29.7640   23.3453    4.3341 H         1 UNK         0.1562 
     84 H84        27.2629   24.5179    6.8029 H         1 UNK         0.0748 
     85 H85        28.0562   23.1175    6.1379 H         1 UNK         0.0748 
     86 H86        25.9015   26.0974    5.4240 H         1 UNK         0.0940 
     87 H87        24.4665   25.4458    4.7276 H         1 UNK         0.0940 
     88 H88        26.8393   25.6762    2.8651 H         1 UNK         0.0703 
     89 H89        25.3151   25.4020    1.3340 H         1 UNK         0.3081 
     90 H90        21.9391   25.4196    1.1429 H         1 UNK         0.0719 
     91 H91        23.2102   27.9153   -0.1162 H         1 UNK         0.0809 
     92 H92        21.7391   27.1193   -0.6793 H         1 UNK         0.0809 
     93 H93        21.7722   27.8934    0.8940 H         1 UNK         0.0809 
     94 H94        23.9458   25.7206   -0.9353 H         1 UNK         0.2990 
     95 H95        25.3666   22.5702   -0.6974 H         1 UNK         0.0690 
     96 H96        24.5806   22.1117   -3.0070 H         1 UNK         0.0788 
     97 H97        23.2925   23.3058   -2.8363 H         1 UNK         0.0788 
     98 H98        23.2761   21.8404   -1.8652 H         1 UNK         0.0788 
     99 H99        25.5256   24.4376   -2.8033 H         1 UNK         0.2993 
    100 H100       27.4257   25.6953   -3.0071 H         1 UNK         0.0949 
    101 H101       27.1232   28.1608   -2.5607 H         1 UNK         0.0767 
    102 H102       25.5950   27.2994   -2.4894 H         1 UNK         0.0767 
    103 H103       26.3949   27.7862   -1.0012 H         1 UNK         0.0767 
    104 H104       28.7576   27.0688   -0.7876 H         1 UNK         0.3013 
    105 H105       27.0283   27.4891    1.3850 H         1 UNK         0.3121 
    106 H106       27.5288   29.9345    2.9215 H         1 UNK         0.0774 
    107 H107       26.7124   31.3420    1.0268 H         1 UNK         0.0815 
    108 H108       26.1403   29.9167    0.1714 H         1 UNK         0.0815 
    109 H109       25.3806   30.4041    1.6850 H         1 UNK         0.0815 
    110 H110       29.4281   31.0115    2.0649 H         1 UNK         0.2987 
    111 H111       30.8386   30.0407   -0.2342 H         1 UNK         0.0949 
    112 H112       32.7800   29.0716    1.0449 H         1 UNK         0.0806 
    113 H113       31.9253   29.3075    2.5586 H         1 UNK         0.0806 
    114 H114       31.3296   28.1448    1.3801 H         1 UNK         0.0806 
    115 H115       32.7378   31.2959   -0.6086 H         1 UNK         0.3010 
    116 H116       33.0495   33.8173    0.9023 H         1 UNK         0.0829 
    117 H117       33.1980   33.8638   -1.5870 H         1 UNK         0.0813 
    118 H118       34.7290   34.3231   -0.8613 H         1 UNK         0.0813 
    119 H119       34.5374   32.7161   -1.5473 H         1 UNK         0.0813 
    120 H120       34.3847   30.6149    0.7569 H         1 UNK         0.3038 
    121 H121       36.9054   31.1494    2.1203 H         1 UNK         0.0769 
    122 H122       37.0574   28.6526    2.0908 H         1 UNK         0.0811 
    123 H123       36.6200   29.2395    0.4978 H         1 UNK         0.0811 
    124 H124       35.3923   28.5289    1.5465 H         1 UNK         0.0811 
    125 H125       37.3513   29.8976    4.1791 H         1 UNK         0.3204 
    126 H126       35.6111   30.6955    6.2996 H         1 UNK         0.0748 
    127 H127       37.2463   29.4528    7.7262 H         1 UNK         0.0771 
    128 H128       37.9996   28.7686    6.2928 H         1 UNK         0.0771 
    129 H129       38.0697   30.5064    6.5890 H         1 UNK         0.0771 
    130 H130       33.9122   29.6953    7.1799 H         1 UNK         0.2980 
    131 H131       32.9859   27.1465    6.1376 H         1 UNK         0.0545 
    132 H132       34.6273   26.3053    9.6927 H         1 UNK         0.3459 
    133 H133       35.0602   27.7290    8.7787 H         1 UNK         0.3459 
    134 H134       30.8880   27.7016    7.3976 H         1 UNK         0.0616 
    135 H135       31.6658   29.1057    8.0788 H         1 UNK         0.0616 
    136 H136       29.3315   29.1561    4.2763 H         1 UNK         0.0634 
    137 H137       28.8735   28.9198    5.9440 H         1 UNK         0.0634 
@<TRIPOS>BOND
     1    1    2 1    
     2    1   72 1    
     3    1   73 1    
     4    1   74 1    
     5    2    3 2    
     6    2    4 am   BACKBONE|DICT|INTERRES
     7    4    5 1    
     8    4   75 1    
     9    5    6 1    
    10    5   35 1    
    11    5   76 1    
    12    6    7 1    
    13    6   77 1    
    14    6   78 1    
    15    7    8 1    
    16    8    9 1    
    17    8   79 1    
    18    8   80 1    
    19    9   10 ar   
    20    9   14 ar   
    21   10   11 ar   
    22   10   81 1    
    23   11   12 ar   
    24   11   71 1    
    25   12   13 ar   
    26   12   82 1    
    27   13   14 ar   
    28   13   15 1    
    29   14   83 1    
    30   15   16 1    
    31   15   84 1    
    32   15   85 1    
    33   16   17 1    
    34   17   18 1    
    35   17   86 1    
    36   17   87 1    
    37   18   19 1    
    38   18   37 1    
    39   18   88 1    
    40   19   20 am   BACKBONE|DICT|INTERRES
    41   19   89 1    
    42   20   21 2    
    43   20   22 1    
    44   22   23 1    
    45   22   24 1    
    46   22   90 1    
    47   23   91 1    
    48   23   92 1    
    49   23   93 1    
    50   24   25 am   BACKBONE|DICT|INTERRES
    51   24   94 1    
    52   25   26 2    
    53   25   27 1    
    54   27   28 1    
    55   27   29 1    
    56   27   95 1    
    57   28   96 1    
    58   28   97 1    
    59   28   98 1    
    60   29   30 am   BACKBONE|DICT|INTERRES
    61   29   99 1    
    62   30   31 2    
    63   30   32 1    
    64   32   33 1    
    65   32   34 1    
    66   32  100 1    
    67   33  101 1    
    68   33  102 1    
    69   33  103 1    
    70   34   35 am   BACKBONE|DICT|INTERRES
    71   34  104 1    
    72   35   36 2    
    73   37   38 2    
    74   37   39 am   BACKBONE|DICT|INTERRES
    75   39   40 1    
    76   39  105 1    
    77   40   41 1    
    78   40   42 1    
    79   40  106 1    
    80   41  107 1    
    81   41  108 1    
    82   41  109 1    
    83   42   43 2    
    84   42   44 am   BACKBONE|DICT|INTERRES
    85   44   45 1    
    86   44  110 1    
    87   45   46 1    
    88   45   47 1    
    89   45  111 1    
    90   46  112 1    
    91   46  113 1    
    92   46  114 1    
    93   47   48 2    
    94   47   49 am   BACKBONE|DICT|INTERRES
    95   49   50 1    
    96   49  115 1    
    97   50   51 1    
    98   50   52 1    
    99   50  116 1    
   100   51  117 1    
   101   51  118 1    
   102   51  119 1    
   103   52   53 2    
   104   52   54 am   BACKBONE|DICT|INTERRES
   105   54   55 1    
   106   54  120 1    
   107   55   56 1    
   108   55   57 1    
   109   55  121 1    
   110   56  122 1    
   111   56  123 1    
   112   56  124 1    
   113   57   58 2    
   114   57   59 am   BACKBONE|DICT|INTERRES
   115   59   60 1    
   116   59  125 1    
   117   60   61 1    
   118   60   62 1    
   119   60  126 1    
   120   61  127 1    
   121   61  128 1    
   122   61  129 1    
   123   62   63 2    
   124   62   64 am   BACKBONE|DICT|INTERRES
   125   64   65 1    
   126   64  130 1    
   127   65   66 1    
   128   65   69 1    
   129   65  131 1    
   130   66   67 am   BACKBONE|DICT|INTERRES
   131   66   68 2    
   132   67  132 1    
   133   67  133 1    
   134   69   70 1    
   135   69  134 1    
   136   69  135 1    
   137   70   71 1    
   138   71  136 1    
   139   71  137 1    
@<TRIPOS>SUBSTRUCTURE
     1 UNK         1 GROUP             0       ****    0 ROOT    
