@<TRIPOS>MOLECULE
3R136
137   139    1
SMALL
USER_CHARGES


@<TRIPOS>ATOM
      1 CA         29.5727   28.2880    3.2598 C.3       0 UNK        -0.1979 
      2 C          28.7840   27.0629    3.6818 C.2       0 UNK         0.4864 
      3 O          28.1200   27.0870    4.7186 O.2       0 UNK        -0.5359 
      4 N          28.8429   25.9968    2.8754 N.am      1 UNK        -0.4318 
      5 CA         28.0869   24.7568    3.0748 C.3       1 UNK         0.0824 
      6 C6         28.7082   23.5794    2.2846 C.3       12 UNK        -0.0944 
      7 S7         30.2877   23.0373    3.0171 S.3       12 UNK        -0.2672 
      8 C8         31.4510   23.1533    1.6151 C.3       12 UNK         0.0333 
      9 C9         31.9362   24.5692    1.3118 C.ar      12 UNK        -0.0807 
     10 C10        32.2772   25.4565    2.3416 C.ar      12 UNK        -0.0894 
     11 C11        32.7729   26.7301    2.0485 C.ar      12 UNK        -0.0804 
     12 C12        32.9314   27.1164    0.7164 C.ar      12 UNK        -0.0824 
     13 C13        32.6126   26.2382   -0.3224 C.ar      12 UNK        -0.0762 
     14 C14        32.1148   24.9666   -0.0188 C.ar      12 UNK        -0.0782 
     15 C15        32.8188   26.6744   -1.7685 C.3       12 UNK         0.0230 
     16 S16        31.2685   26.7713   -2.7239 S.3       12 UNK        -0.2608 
     17 C17        30.1955   27.7915   -1.6504 C.3       12 UNK        -0.0989 
     18 CA         28.6872   27.4876   -1.8379 C.3       5 UNK         0.0716 
     19 N          28.4021   26.0510   -1.8648 N.am      5 UNK        -0.4135 
     20 C          27.2699   25.5026   -2.3203 C.2       4 UNK         0.5031 
     21 O          26.3242   26.1592   -2.7583 O.2       4 UNK        -0.5229 
     22 CA         27.1600   23.9691   -2.2888 C.3       4 UNK         0.0329 
     23 CB         28.4896   23.2386   -2.0026 C.3       4 UNK        -0.2001 
     24 N          26.1820   23.6242   -1.2631 N.am      4 UNK        -0.4303 
     25 C          24.9471   23.1534   -1.4819 C.2       3 UNK         0.5044 
     26 O          24.5277   22.7845   -2.5796 O.2       3 UNK        -0.5152 
     27 CA         24.0115   23.1045   -0.2582 C.3       3 UNK         0.0319 
     28 CB         24.0590   21.7183    0.4038 C.3       3 UNK        -0.2001 
     29 N          24.3476   24.1263    0.7381 N.am      3 UNK        -0.4354 
     30 C          24.1784   25.4454    0.5781 C.2       2 UNK         0.4964 
     31 O          23.5641   25.9429   -0.3652 O.2       2 UNK        -0.5047 
     32 CA         24.8387   26.3732    1.6130 C.3       2 UNK         0.0288 
     33 CB         23.9209   26.6061    2.8288 C.3       2 UNK        -0.2113 
     34 N          26.1958   25.9707    2.0201 N.am      2 UNK        -0.4145 
     35 C          26.5835   24.9116    2.7514 C.2       1 UNK         0.5006 
     36 O          25.8033   24.0475    3.1552 O.2       1 UNK        -0.5103 
     37 C          27.8781   28.1753   -0.7228 C.2       5 UNK         0.5055 
     38 O          27.8159   27.6477    0.3911 O.2       5 UNK        -0.5220 
     39 N          27.3257   29.3563   -1.0232 N.am      6 UNK        -0.4450 
     40 CA         26.6126   30.2042   -0.0619 C.3       6 UNK         0.0367 
     41 CB         25.4810   30.9429   -0.7964 C.3       6 UNK        -0.1929 
     42 C          27.5358   31.2081    0.6567 C.2       6 UNK         0.5070 
     43 O          27.0833   31.8701    1.5908 O.2       6 UNK        -0.5237 
     44 N          28.7940   31.3304    0.2074 N.am      7 UNK        -0.4739 
     45 CA         29.8191   32.2113    0.7717 C.3       7 UNK         0.0276 
     46 CB         31.0040   32.2911   -0.2075 C.3       7 UNK        -0.1927 
     47 C          30.2674   31.7132    2.1553 C.2       7 UNK         0.5013 
     48 O          31.0838   30.7932    2.2320 O.2       7 UNK        -0.5193 
     49 N          29.7001   32.3032    3.2155 N.am      8 UNK        -0.4253 
     50 CA         29.8499   31.9149    4.6229 C.3       8 UNK         0.0242 
     51 CB         28.7045   32.5536    5.4313 C.3       8 UNK        -0.2000 
     52 C          31.2392   32.2110    5.2277 C.2       8 UNK         0.4948 
     53 O          31.3342   32.8668    6.2676 O.2       8 UNK        -0.5275 
     54 N          32.2937   31.7116    4.5766 N.am      9 UNK        -0.4246 
     55 CA         33.6612   31.6795    5.0906 C.3       9 UNK         0.0261 
     56 CB         34.6309   31.5075    3.9102 C.3       9 UNK        -0.1959 
     57 C          33.8293   30.5408    6.1114 C.2       9 UNK         0.5033 
     58 O          33.0900   29.5524    6.0667 O.2       9 UNK        -0.5390 
     59 N          34.8207   30.6804    6.9999 N.am      10 UNK        -0.4215 
     60 CA         35.1618   29.7096    8.0446 C.3       10 UNK         0.0240 
     61 CB         35.9212   30.4365    9.1713 C.3       10 UNK        -0.1982 
     62 C          35.9458   28.5078    7.4794 C.2       10 UNK         0.4970 
     63 O          37.1106   28.3089    7.8300 O.2       10 UNK        -0.4916 
     64 N          35.2966   27.7435    6.5947 N.am      11 UNK        -0.4279 
     65 CA         35.8647   26.5712    5.9071 C.3       11 UNK         0.1003 
     66 C          36.0435   25.3102    6.8024 C.2       11 UNK         0.5709 
     67 N          35.4772   25.2573    8.0025 N.am      11 UNK        -0.7358 
     68 O          36.7173   24.3639    6.4017 O.2       11 UNK        -0.4999 
     69 C69        35.0833   26.2232    4.6123 C.3       12 UNK        -0.0954 
     70 S70        34.9483   27.6441    3.4751 S.3       12 UNK        -0.2268 
     71 C71        33.1571   27.6948    3.1593 C.3       12 UNK         0.0203 
     72 H72        28.8946   29.1273    3.1102 H         1 UNK         0.0888 
     73 H73        30.2963   28.5578    4.0281 H         1 UNK         0.0888 
     74 H74        30.1115   28.1265    2.3259 H         1 UNK         0.0888 
     75 H75        29.4113   26.0390    2.0416 H         1 UNK         0.3017 
     76 H76        28.1317   24.5071    4.1375 H         1 UNK         0.0873 
     77 H77        28.8508   23.8530    1.2395 H         1 UNK         0.0745 
     78 H78        28.0472   22.7100    2.2865 H         1 UNK         0.0745 
     79 H79        30.9892   22.7015    0.7356 H         1 UNK         0.0705 
     80 H80        32.3243   22.5426    1.8473 H         1 UNK         0.0705 
     81 H81        32.1692   25.1522    3.3733 H         1 UNK         0.1334 
     82 H82        33.3186   28.1013    0.4925 H         1 UNK         0.1417 
     83 H83        31.8792   24.2841   -0.8243 H         1 UNK         0.1562 
     84 H84        33.4918   25.9707   -2.2602 H         1 UNK         0.0748 
     85 H85        33.3122   27.6467   -1.8123 H         1 UNK         0.0748 
     86 H86        30.4019   28.8417   -1.8645 H         1 UNK         0.0940 
     87 H87        30.4744   27.6422   -0.6069 H         1 UNK         0.0940 
     88 H88        28.3786   27.8991   -2.8017 H         1 UNK         0.0703 
     89 H89        29.1386   25.4507   -1.5280 H         1 UNK         0.3081 
     90 H90        26.8104   23.6556   -3.2747 H         1 UNK         0.0719 
     91 H91        29.2447   23.4888   -2.7496 H         1 UNK         0.0809 
     92 H92        28.8984   23.4764   -1.0218 H         1 UNK         0.0809 
     93 H93        28.3519   22.1578   -2.0428 H         1 UNK         0.0809 
     94 H94        26.3963   23.9276   -0.3257 H         1 UNK         0.2990 
     95 H95        22.9933   23.2870   -0.6081 H         1 UNK         0.0690 
     96 H96        23.3545   21.6510    1.2330 H         1 UNK         0.0788 
     97 H97        25.0533   21.4873    0.7887 H         1 UNK         0.0788 
     98 H98        23.7947   20.9362   -0.3095 H         1 UNK         0.0788 
     99 H99        24.8193   23.8199    1.5860 H         1 UNK         0.2993 
    100 H100       24.9668   27.3365    1.1162 H         1 UNK         0.0949 
    101 H101       23.7157   25.6830    3.3715 H         1 UNK         0.0767 
    102 H102       24.3645   27.3150    3.5281 H         1 UNK         0.0767 
    103 H103       22.9600   27.0167    2.5159 H         1 UNK         0.0767 
    104 H104       26.9282   26.5830    1.6635 H         1 UNK         0.3013 
    105 H105       27.4121   29.7158   -1.9639 H         1 UNK         0.3121 
    106 H106       26.1588   29.5788    0.7100 H         1 UNK         0.0774 
    107 H107       24.9000   31.5550   -0.1051 H         1 UNK         0.0815 
    108 H108       25.8662   31.6053   -1.5726 H         1 UNK         0.0815 
    109 H109       24.7889   30.2422   -1.2640 H         1 UNK         0.0815 
    110 H110       29.0854   30.7334   -0.5506 H         1 UNK         0.2987 
    111 H111       29.3988   33.2141    0.8763 H         1 UNK         0.0949 
    112 H112       30.6991   32.7101   -1.1666 H         1 UNK         0.0806 
    113 H113       31.7932   32.9315    0.1887 H         1 UNK         0.0806 
    114 H114       31.4450   31.3109   -0.3944 H         1 UNK         0.0806 
    115 H115       29.0246   33.0326    3.0354 H         1 UNK         0.3010 
    116 H116       29.7200   30.8337    4.6845 H         1 UNK         0.0829 
    117 H117       27.7303   32.2637    5.0366 H         1 UNK         0.0813 
    118 H118       28.7344   32.2351    6.4743 H         1 UNK         0.0813 
    119 H119       28.7619   33.6428    5.4202 H         1 UNK         0.0813 
    120 H120       32.1044   31.1838    3.7274 H         1 UNK         0.3038 
    121 H121       33.8762   32.6288    5.5862 H         1 UNK         0.0769 
    122 H122       35.6658   31.4559    4.2507 H         1 UNK         0.0811 
    123 H123       34.5599   32.3456    3.2167 H         1 UNK         0.0811 
    124 H124       34.4264   30.5959    3.3492 H         1 UNK         0.0811 
    125 H125       35.4082   31.5004    6.9436 H         1 UNK         0.3204 
    126 H126       34.2367   29.3173    8.4730 H         1 UNK         0.0748 
    127 H127       36.1681   29.7499    9.9823 H         1 UNK         0.0771 
    128 H128       36.8562   30.8717    8.8159 H         1 UNK         0.0771 
    129 H129       35.3202   31.2381    9.6014 H         1 UNK         0.0771 
    130 H130       34.3601   28.0244    6.3219 H         1 UNK         0.2980 
    131 H131       36.8746   26.8498    5.5995 H         1 UNK         0.0545 
    132 H132       35.6055   24.4368    8.5734 H         1 UNK         0.3459 
    133 H133       34.9221   26.0268    8.3398 H         1 UNK         0.3459 
    134 H134       35.5788   25.4165    4.0691 H         1 UNK         0.0616 
    135 H135       34.0883   25.8529    4.8636 H         1 UNK         0.0616 
    136 H136       32.6046   27.4821    4.0755 H         1 UNK         0.0634 
    137 H137       32.8797   28.7097    2.8711 H         1 UNK         0.0634 
@<TRIPOS>BOND
     1    1    2 1    
     2    1   72 1    
     3    1   73 1    
     4    1   74 1    
     5    2    3 2    
     6    2    4 am   BACKBONE|DICT|INTERRES
     7    4    5 1    
     8    4   75 1    
     9    5    6 1    
    10    5   35 1    
    11    5   76 1    
    12    6    7 1    
    13    6   77 1    
    14    6   78 1    
    15    7    8 1    
    16    8    9 1    
    17    8   79 1    
    18    8   80 1    
    19    9   10 ar   
    20    9   14 ar   
    21   10   11 ar   
    22   10   81 1    
    23   11   12 ar   
    24   11   71 1    
    25   12   13 ar   
    26   12   82 1    
    27   13   14 ar   
    28   13   15 1    
    29   14   83 1    
    30   15   16 1    
    31   15   84 1    
    32   15   85 1    
    33   16   17 1    
    34   17   18 1    
    35   17   86 1    
    36   17   87 1    
    37   18   19 1    
    38   18   37 1    
    39   18   88 1    
    40   19   20 am   BACKBONE|DICT|INTERRES
    41   19   89 1    
    42   20   21 2    
    43   20   22 1    
    44   22   23 1    
    45   22   24 1    
    46   22   90 1    
    47   23   91 1    
    48   23   92 1    
    49   23   93 1    
    50   24   25 am   BACKBONE|DICT|INTERRES
    51   24   94 1    
    52   25   26 2    
    53   25   27 1    
    54   27   28 1    
    55   27   29 1    
    56   27   95 1    
    57   28   96 1    
    58   28   97 1    
    59   28   98 1    
    60   29   30 am   BACKBONE|DICT|INTERRES
    61   29   99 1    
    62   30   31 2    
    63   30   32 1    
    64   32   33 1    
    65   32   34 1    
    66   32  100 1    
    67   33  101 1    
    68   33  102 1    
    69   33  103 1    
    70   34   35 am   BACKBONE|DICT|INTERRES
    71   34  104 1    
    72   35   36 2    
    73   37   38 2    
    74   37   39 am   BACKBONE|DICT|INTERRES
    75   39   40 1    
    76   39  105 1    
    77   40   41 1    
    78   40   42 1    
    79   40  106 1    
    80   41  107 1    
    81   41  108 1    
    82   41  109 1    
    83   42   43 2    
    84   42   44 am   BACKBONE|DICT|INTERRES
    85   44   45 1    
    86   44  110 1    
    87   45   46 1    
    88   45   47 1    
    89   45  111 1    
    90   46  112 1    
    91   46  113 1    
    92   46  114 1    
    93   47   48 2    
    94   47   49 am   BACKBONE|DICT|INTERRES
    95   49   50 1    
    96   49  115 1    
    97   50   51 1    
    98   50   52 1    
    99   50  116 1    
   100   51  117 1    
   101   51  118 1    
   102   51  119 1    
   103   52   53 2    
   104   52   54 am   BACKBONE|DICT|INTERRES
   105   54   55 1    
   106   54  120 1    
   107   55   56 1    
   108   55   57 1    
   109   55  121 1    
   110   56  122 1    
   111   56  123 1    
   112   56  124 1    
   113   57   58 2    
   114   57   59 am   BACKBONE|DICT|INTERRES
   115   59   60 1    
   116   59  125 1    
   117   60   61 1    
   118   60   62 1    
   119   60  126 1    
   120   61  127 1    
   121   61  128 1    
   122   61  129 1    
   123   62   63 2    
   124   62   64 am   BACKBONE|DICT|INTERRES
   125   64   65 1    
   126   64  130 1    
   127   65   66 1    
   128   65   69 1    
   129   65  131 1    
   130   66   67 am   BACKBONE|DICT|INTERRES
   131   66   68 2    
   132   67  132 1    
   133   67  133 1    
   134   69   70 1    
   135   69  134 1    
   136   69  135 1    
   137   70   71 1    
   138   71  136 1    
   139   71  137 1    
@<TRIPOS>SUBSTRUCTURE
     1 UNK         1 GROUP             0       ****    0 ROOT    
