@<TRIPOS>MOLECULE
3R136
137   139    1
SMALL
USER_CHARGES


@<TRIPOS>ATOM
      1 CA         30.2964   23.5210   -1.7743 C.3       0 UNK        -0.1979 
      2 C          29.5643   23.9529   -0.5143 C.2       0 UNK         0.4864 
      3 O          28.9312   25.0099   -0.5136 O.2       0 UNK        -0.5359 
      4 N          29.6443   23.1490    0.5545 N.am      1 UNK        -0.4318 
      5 CA         29.0044   23.3816    1.8559 C.3       1 UNK         0.0824 
      6 C6         29.3666   22.2878    2.9002 C.3       12 UNK        -0.0944 
      7 S7         31.1267   21.7919    2.9069 S.3       12 UNK        -0.2672 
      8 C8         31.8155   22.7527    4.2984 C.3       12 UNK         0.0333 
      9 C9         31.9653   24.2515    4.0377 C.ar      12 UNK        -0.0807 
     10 C10        31.9313   25.1318    5.1232 C.ar      12 UNK        -0.0894 
     11 C11        32.0850   26.5080    4.9357 C.ar      12 UNK        -0.0804 
     12 C12        32.2653   27.0055    3.6407 C.ar      12 UNK        -0.0824 
     13 C13        32.2952   26.1424    2.5400 C.ar      12 UNK        -0.0762 
     14 C14        32.1676   24.7674    2.7512 C.ar      12 UNK        -0.0782 
     15 C15        32.4501   26.6689    1.1131 C.3       12 UNK         0.0230 
     16 S16        31.4949   28.1864    0.7607 S.3       12 UNK        -0.2608 
     17 C17        29.8926   27.8177    1.5509 C.3       12 UNK        -0.0989 
     18 CA         28.6885   28.4156    0.7901 C.3       5 UNK         0.0716 
     19 N          28.4672   27.7446   -0.4867 N.am      5 UNK        -0.4135 
     20 C          27.8560   28.2824   -1.5484 C.2       4 UNK         0.5031 
     21 O          27.4476   29.4443   -1.5878 O.2       4 UNK        -0.5229 
     22 CA         27.6154   27.3502   -2.7400 C.3       4 UNK         0.0329 
     23 CB         28.9369   26.9984   -3.4453 C.3       4 UNK        -0.2001 
     24 N          26.9606   26.1274   -2.2748 N.am      4 UNK        -0.4303 
     25 C          25.7107   25.7617   -2.5833 C.2       3 UNK         0.5044 
     26 O          24.9820   26.3752   -3.3644 O.2       3 UNK        -0.5152 
     27 CA         25.1767   24.4915   -1.9010 C.3       3 UNK         0.0319 
     28 CB         25.7232   23.2335   -2.5956 C.3       3 UNK        -0.2001 
     29 N          25.4821   24.4233   -0.4707 N.am      3 UNK        -0.4354 
     30 C          25.0230   25.2537    0.4750 C.2       2 UNK         0.4964 
     31 O          24.2781   26.2055    0.2430 O.2       2 UNK        -0.5047 
     32 CA         25.4544   24.9826    1.9307 C.3       2 UNK         0.0288 
     33 CB         24.5054   23.9798    2.6174 C.3       2 UNK        -0.2113 
     34 N          26.8689   24.6025    2.0909 N.am      2 UNK        -0.4145 
     35 C          27.4737   23.4748    1.6857 C.2       1 UNK         0.5006 
     36 O          26.8821   22.5389    1.1409 O.2       1 UNK        -0.5103 
     37 C          27.4000   28.3440    1.6293 C.2       5 UNK         0.5055 
     38 O          27.3345   27.5788    2.5939 O.2       5 UNK        -0.5220 
     39 N          26.3932   29.1374    1.2393 N.am      6 UNK        -0.4450 
     40 CA         25.1540   29.3465    1.9981 C.3       6 UNK         0.0367 
     41 CB         24.1148   30.0230    1.0908 C.3       6 UNK        -0.1929 
     42 C          25.3782   30.1712    3.2823 C.2       6 UNK         0.5070 
     43 O          24.5792   30.0800    4.2145 O.2       6 UNK        -0.5237 
     44 N          26.4710   30.9399    3.3070 N.am      7 UNK        -0.4739 
     45 CA         27.0475   31.6145    4.4640 C.3       7 UNK         0.0276 
     46 CB         26.8166   33.1295    4.3286 C.3       7 UNK        -0.1927 
     47 C          28.5474   31.2778    4.4920 C.2       7 UNK         0.5013 
     48 O          29.0656   30.7256    3.5156 O.2       7 UNK        -0.5193 
     49 N          29.2186   31.6095    5.6033 N.am      8 UNK        -0.4253 
     50 CA         30.6520   31.3751    5.8060 C.3       8 UNK         0.0242 
     51 CB         31.0411   31.7684    7.2401 C.3       8 UNK        -0.2000 
     52 C          31.5223   32.1216    4.7789 C.2       8 UNK         0.4948 
     53 O          31.2648   33.2952    4.4983 O.2       8 UNK        -0.5275 
     54 N          32.5328   31.4247    4.2514 N.am      9 UNK        -0.4246 
     55 CA         33.4370   31.8941    3.2068 C.3       9 UNK         0.0261 
     56 CB         32.7177   31.9197    1.8379 C.3       9 UNK        -0.1959 
     57 C          34.6965   31.0183    3.2496 C.2       9 UNK         0.5033 
     58 O          35.4103   31.0493    4.2539 O.2       9 UNK        -0.5390 
     59 N          34.9486   30.2362    2.1914 N.am      10 UNK        -0.4215 
     60 CA         36.0939   29.3314    2.0442 C.3       10 UNK         0.0240 
     61 CB         36.3110   29.0538    0.5441 C.3       10 UNK        -0.1982 
     62 C          35.9340   28.0366    2.8690 C.2       10 UNK         0.4970 
     63 O          35.9512   26.9405    2.3068 O.2       10 UNK        -0.4916 
     64 N          35.7649   28.1910    4.1864 N.am      11 UNK        -0.4279 
     65 CA         35.5320   27.1008    5.1477 C.3       11 UNK         0.1003 
     66 C          36.7852   26.2399    5.4802 C.2       11 UNK         0.5709 
     67 N          37.9895   26.6300    5.0785 N.am      11 UNK        -0.7358 
     68 O          36.6617   25.1933    6.1122 O.2       11 UNK        -0.4999 
     69 C69        34.8447   27.6062    6.4471 C.3       12 UNK        -0.0954 
     70 S70        33.3850   28.6653    6.1566 S.3       12 UNK        -0.2268 
     71 C71        32.0294   27.4476    6.1351 C.3       12 UNK         0.0203 
     72 H72        29.5986   23.4562   -2.6086 H         1 UNK         0.0888 
     73 H73        31.0644   24.2510   -2.0279 H         1 UNK         0.0888 
     74 H74        30.7755   22.5495   -1.6547 H         1 UNK         0.0888 
     75 H75        30.1690   22.2882    0.4917 H         1 UNK         0.3017 
     76 H76        29.3726   24.3399    2.2263 H         1 UNK         0.0873 
     77 H77        28.7971   21.3753    2.7107 H         1 UNK         0.0745 
     78 H78        29.0784   22.6140    3.9012 H         1 UNK         0.0745 
     79 H79        32.8020   22.3514    4.5338 H         1 UNK         0.0705 
     80 H80        31.1961   22.5806    5.1802 H         1 UNK         0.0705 
     81 H81        31.7866   24.7418    6.1217 H         1 UNK         0.1334 
     82 H82        32.3742   28.0698    3.4873 H         1 UNK         0.1417 
     83 H83        32.2131   24.0995    1.9028 H         1 UNK         0.1562 
     84 H84        32.1390   25.9087    0.3947 H         1 UNK         0.0748 
     85 H85        33.5056   26.8630    0.9200 H         1 UNK         0.0748 
     86 H86        29.9376   28.2224    2.5644 H         1 UNK         0.0940 
     87 H87        29.7711   26.7385    1.6568 H         1 UNK         0.0940 
     88 H88        28.9013   29.4722    0.6113 H         1 UNK         0.0703 
     89 H89        28.7387   26.7627   -0.5207 H         1 UNK         0.3081 
     90 H90        26.9822   27.8812   -3.4539 H         1 UNK         0.0719 
     91 H91        29.4418   27.8991   -3.7968 H         1 UNK         0.0809 
     92 H92        29.6286   26.4734   -2.7858 H         1 UNK         0.0809 
     93 H93        28.7614   26.3649   -4.3148 H         1 UNK         0.0809 
     94 H94        27.4831   25.5665   -1.6071 H         1 UNK         0.2990 
     95 H95        24.0897   24.4930   -2.0049 H         1 UNK         0.0690 
     96 H96        25.2748   22.3284   -2.1853 H         1 UNK         0.0788 
     97 H97        26.8053   23.1491   -2.4875 H         1 UNK         0.0788 
     98 H98        25.5010   23.2489   -3.6637 H         1 UNK         0.0788 
     99 H99        26.0599   23.6484   -0.1565 H         1 UNK         0.2993 
    100 H100       25.3444   25.9288    2.4612 H         1 UNK         0.0949 
    101 H101       24.5049   23.0074    2.1245 H         1 UNK         0.0767 
    102 H102       24.7782   23.8276    3.6616 H         1 UNK         0.0767 
    103 H103       23.4786   24.3476    2.6011 H         1 UNK         0.0767 
    104 H104       27.4419   25.3450    2.4754 H         1 UNK         0.3013 
    105 H105       26.5123   29.6720    0.3860 H         1 UNK         0.3121 
    106 H106       24.7645   28.3710    2.2963 H         1 UNK         0.0774 
    107 H107       23.1729   30.1710    1.6207 H         1 UNK         0.0815 
    108 H108       24.4531   31.0009    0.7461 H         1 UNK         0.0815 
    109 H109       23.8992   29.4112    0.2143 H         1 UNK         0.0815 
    110 H110       27.1069   30.8738    2.5231 H         1 UNK         0.2987 
    111 H111       26.5919   31.2469    5.3863 H         1 UNK         0.0949 
    112 H112       25.7535   33.3621    4.2637 H         1 UNK         0.0806 
    113 H113       27.2127   33.6686    5.1898 H         1 UNK         0.0806 
    114 H114       27.3020   33.5331    3.4390 H         1 UNK         0.0806 
    115 H115       28.7297   32.0890    6.3449 H         1 UNK         0.3010 
    116 H116       30.8180   30.3035    5.6863 H         1 UNK         0.0829 
    117 H117       30.4761   31.1974    7.9772 H         1 UNK         0.0813 
    118 H118       32.0987   31.5726    7.4236 H         1 UNK         0.0813 
    119 H119       30.8682   32.8288    7.4283 H         1 UNK         0.0813 
    120 H120       32.7309   30.4993    4.6110 H         1 UNK         0.3038 
    121 H121       33.7556   32.9101    3.4493 H         1 UNK         0.0769 
    122 H122       33.3922   32.2259    1.0371 H         1 UNK         0.0811 
    123 H123       31.8944   32.6342    1.8419 H         1 UNK         0.0811 
    124 H124       32.2976   30.9480    1.5780 H         1 UNK         0.0811 
    125 H125       34.2848   30.2422    1.4302 H         1 UNK         0.3204 
    126 H126       36.9859   29.8389    2.4183 H         1 UNK         0.0748 
    127 H127       37.1816   28.4157    0.3856 H         1 UNK         0.0771 
    128 H128       35.4518   28.5515    0.0971 H         1 UNK         0.0771 
    129 H129       36.4855   29.9769   -0.0094 H         1 UNK         0.0771 
    130 H130       35.7373   29.1365    4.5556 H         1 UNK         0.2980 
    131 H131       34.8417   26.4054    4.6691 H         1 UNK         0.0545 
    132 H132       38.7920   26.0612    5.2977 H         1 UNK         0.3459 
    133 H133       38.1019   27.4862    4.5604 H         1 UNK         0.3459 
    134 H134       34.5464   26.7644    7.0747 H         1 UNK         0.0616 
    135 H135       35.5521   28.1888    7.0398 H         1 UNK         0.0616 
    136 H136       32.0477   26.8885    7.0719 H         1 UNK         0.0634 
    137 H137       31.0771   27.9777    6.1135 H         1 UNK         0.0634 
@<TRIPOS>BOND
     1    1    2 1    
     2    1   72 1    
     3    1   73 1    
     4    1   74 1    
     5    2    3 2    
     6    2    4 am   BACKBONE|DICT|INTERRES
     7    4    5 1    
     8    4   75 1    
     9    5    6 1    
    10    5   35 1    
    11    5   76 1    
    12    6    7 1    
    13    6   77 1    
    14    6   78 1    
    15    7    8 1    
    16    8    9 1    
    17    8   79 1    
    18    8   80 1    
    19    9   10 ar   
    20    9   14 ar   
    21   10   11 ar   
    22   10   81 1    
    23   11   12 ar   
    24   11   71 1    
    25   12   13 ar   
    26   12   82 1    
    27   13   14 ar   
    28   13   15 1    
    29   14   83 1    
    30   15   16 1    
    31   15   84 1    
    32   15   85 1    
    33   16   17 1    
    34   17   18 1    
    35   17   86 1    
    36   17   87 1    
    37   18   19 1    
    38   18   37 1    
    39   18   88 1    
    40   19   20 am   BACKBONE|DICT|INTERRES
    41   19   89 1    
    42   20   21 2    
    43   20   22 1    
    44   22   23 1    
    45   22   24 1    
    46   22   90 1    
    47   23   91 1    
    48   23   92 1    
    49   23   93 1    
    50   24   25 am   BACKBONE|DICT|INTERRES
    51   24   94 1    
    52   25   26 2    
    53   25   27 1    
    54   27   28 1    
    55   27   29 1    
    56   27   95 1    
    57   28   96 1    
    58   28   97 1    
    59   28   98 1    
    60   29   30 am   BACKBONE|DICT|INTERRES
    61   29   99 1    
    62   30   31 2    
    63   30   32 1    
    64   32   33 1    
    65   32   34 1    
    66   32  100 1    
    67   33  101 1    
    68   33  102 1    
    69   33  103 1    
    70   34   35 am   BACKBONE|DICT|INTERRES
    71   34  104 1    
    72   35   36 2    
    73   37   38 2    
    74   37   39 am   BACKBONE|DICT|INTERRES
    75   39   40 1    
    76   39  105 1    
    77   40   41 1    
    78   40   42 1    
    79   40  106 1    
    80   41  107 1    
    81   41  108 1    
    82   41  109 1    
    83   42   43 2    
    84   42   44 am   BACKBONE|DICT|INTERRES
    85   44   45 1    
    86   44  110 1    
    87   45   46 1    
    88   45   47 1    
    89   45  111 1    
    90   46  112 1    
    91   46  113 1    
    92   46  114 1    
    93   47   48 2    
    94   47   49 am   BACKBONE|DICT|INTERRES
    95   49   50 1    
    96   49  115 1    
    97   50   51 1    
    98   50   52 1    
    99   50  116 1    
   100   51  117 1    
   101   51  118 1    
   102   51  119 1    
   103   52   53 2    
   104   52   54 am   BACKBONE|DICT|INTERRES
   105   54   55 1    
   106   54  120 1    
   107   55   56 1    
   108   55   57 1    
   109   55  121 1    
   110   56  122 1    
   111   56  123 1    
   112   56  124 1    
   113   57   58 2    
   114   57   59 am   BACKBONE|DICT|INTERRES
   115   59   60 1    
   116   59  125 1    
   117   60   61 1    
   118   60   62 1    
   119   60  126 1    
   120   61  127 1    
   121   61  128 1    
   122   61  129 1    
   123   62   63 2    
   124   62   64 am   BACKBONE|DICT|INTERRES
   125   64   65 1    
   126   64  130 1    
   127   65   66 1    
   128   65   69 1    
   129   65  131 1    
   130   66   67 am   BACKBONE|DICT|INTERRES
   131   66   68 2    
   132   67  132 1    
   133   67  133 1    
   134   69   70 1    
   135   69  134 1    
   136   69  135 1    
   137   70   71 1    
   138   71  136 1    
   139   71  137 1    
@<TRIPOS>SUBSTRUCTURE
     1 UNK         1 GROUP             0       ****    0 ROOT    
