@<TRIPOS>MOLECULE
3R136
137   139    1
SMALL
USER_CHARGES


@<TRIPOS>ATOM
      1 CA         27.5285   21.0220    0.8906 C.3       0 UNK        -0.1979 
      2 C          27.7910   22.0593   -0.1897 C.2       0 UNK         0.4864 
      3 O          26.8968   22.3492   -0.9853 O.2       0 UNK        -0.5359 
      4 N          29.0111   22.6090   -0.2329 N.am      1 UNK        -0.4318 
      5 CA         29.4498   23.5851   -1.2377 C.3       1 UNK         0.0824 
      6 C6         30.9915   23.7397   -1.2880 C.3       12 UNK        -0.0944 
      7 S7         31.8692   22.1363   -1.3493 S.3       12 UNK        -0.2672 
      8 C8         33.3050   22.4169   -0.2582 C.3       12 UNK         0.0333 
      9 C9         32.9183   22.9434    1.1189 C.ar      12 UNK        -0.0807 
     10 C10        33.3012   24.2319    1.5042 C.ar      12 UNK        -0.0894 
     11 C11        32.9480   24.7392    2.7577 C.ar      12 UNK        -0.0804 
     12 C12        32.2158   23.9331    3.6370 C.ar      12 UNK        -0.0824 
     13 C13        31.8083   22.6501    3.2566 C.ar      12 UNK        -0.0762 
     14 C14        32.1725   22.1556    2.0003 C.ar      12 UNK        -0.0782 
     15 C15        30.9721   21.7959    4.1981 C.3       12 UNK         0.0230 
     16 S16        29.1881   21.9826    3.8726 S.3       12 UNK        -0.2608 
     17 C17        28.8352   23.6183    4.5978 C.3       12 UNK        -0.0989 
     18 CA         28.6373   24.7248    3.5230 C.3       5 UNK         0.0716 
     19 N          27.4938   24.5270    2.6249 N.am      5 UNK        -0.4135 
     20 C          26.2029   24.4277    2.9689 C.2       4 UNK         0.5031 
     21 O          25.7934   24.4015    4.1311 O.2       4 UNK        -0.5229 
     22 CA         25.2042   24.3593    1.7965 C.3       4 UNK         0.0329 
     23 CB         23.7656   24.0295    2.2491 C.3       4 UNK        -0.2001 
     24 N          25.2204   25.5710    0.9669 N.am      4 UNK        -0.4303 
     25 C          24.9597   26.8325    1.3444 C.2       3 UNK         0.5044 
     26 O          24.6659   27.1611    2.4941 O.2       3 UNK        -0.5152 
     27 CA         25.0290   27.9025    0.2347 C.3       3 UNK         0.0319 
     28 CB         24.7685   29.3307    0.7498 C.3       3 UNK        -0.2001 
     29 N          26.3149   27.8678   -0.4692 N.am      3 UNK        -0.4354 
     30 C          26.5871   27.0535   -1.4985 C.2       2 UNK         0.4964 
     31 O          25.7611   26.2663   -1.9650 O.2       2 UNK        -0.5047 
     32 CA         28.0057   27.0663   -2.1036 C.3       2 UNK         0.0288 
     33 CB         28.9745   28.0986   -1.4880 C.3       2 UNK        -0.2113 
     34 N          28.6064   25.7270   -2.0810 N.am      2 UNK        -0.4145 
     35 C          28.7922   24.9576   -0.9974 C.2       1 UNK         0.5006 
     36 O          28.5031   25.3010    0.1538 O.2       1 UNK        -0.5103 
     37 C          28.6176   26.1473    4.1152 C.2       5 UNK         0.5055 
     38 O          28.7981   26.3230    5.3226 O.2       5 UNK        -0.5220 
     39 N          28.4307   27.1421    3.2404 N.am      6 UNK        -0.4450 
     40 CA         28.5685   28.5597    3.5470 C.3       6 UNK         0.0367 
     41 CB         27.2773   29.1176    4.1697 C.3       6 UNK        -0.1929 
     42 C          28.9476   29.2738    2.2520 C.2       6 UNK         0.5070 
     43 O          28.1287   29.3290    1.3341 O.2       6 UNK        -0.5237 
     44 N          30.1854   29.7744    2.1884 N.am      7 UNK        -0.4739 
     45 CA         30.7540   30.4583    1.0242 C.3       7 UNK         0.0276 
     46 CB         32.1045   29.8002    0.6893 C.3       7 UNK        -0.1927 
     47 C          30.9188   31.9696    1.2632 C.2       7 UNK         0.5013 
     48 O          31.5105   32.6470    0.4214 O.2       7 UNK        -0.5193 
     49 N          30.4372   32.4695    2.4127 N.am      8 UNK        -0.4253 
     50 CA         30.5064   33.8438    2.9362 C.3       8 UNK         0.0242 
     51 CB         29.8310   34.8567    1.9906 C.3       8 UNK        -0.2000 
     52 C          31.9287   34.2907    3.3186 C.2       8 UNK         0.4948 
     53 O          32.1303   34.7790    4.4305 O.2       8 UNK        -0.5275 
     54 N          32.8930   34.0809    2.4149 N.am      9 UNK        -0.4246 
     55 CA         34.3277   34.2713    2.6426 C.3       9 UNK         0.0261 
     56 CB         35.0335   34.3883    1.2816 C.3       9 UNK        -0.1959 
     57 C          34.9589   33.1416    3.4806 C.2       9 UNK         0.5033 
     58 O          36.0713   33.3149    3.9812 O.2       9 UNK        -0.5390 
     59 N          34.2534   32.0132    3.6143 N.am      10 UNK        -0.4215 
     60 CA         34.6287   30.8381    4.3901 C.3       10 UNK         0.0240 
     61 CB         35.5265   29.9181    3.5408 C.3       10 UNK        -0.1982 
     62 C          33.3467   30.1156    4.8210 C.2       10 UNK         0.4970 
     63 O          32.2809   30.3800    4.2519 O.2       10 UNK        -0.4916 
     64 N          33.4970   29.1997    5.7888 N.am      11 UNK        -0.4279 
     65 CA         32.4493   28.3438    6.3766 C.3       11 UNK         0.1003 
     66 C          31.1751   29.1094    6.8536 C.2       11 UNK         0.5709 
     67 N          29.9861   28.5250    6.8064 N.am      11 UNK        -0.7358 
     68 O          31.2725   30.2286    7.3539 O.2       11 UNK        -0.4999 
     69 C69        32.2287   27.0024    5.6041 C.3       12 UNK        -0.0954 
     70 S70        31.9917   27.1490    3.7964 S.3       12 UNK        -0.2268 
     71 C71        33.3711   26.1544    3.1414 C.3       12 UNK         0.0203 
     72 H72        28.4575   20.6118    1.2858 H         1 UNK         0.0888 
     73 H73        26.9691   21.4644    1.7141 H         1 UNK         0.0888 
     74 H74        26.9450   20.1950    0.4868 H         1 UNK         0.0888 
     75 H75        29.7055   22.3541    0.4542 H         1 UNK         0.3017 
     76 H76        29.1175   23.2167   -2.2109 H         1 UNK         0.0873 
     77 H77        31.2847   24.3130   -2.1693 H         1 UNK         0.0745 
     78 H78        31.3347   24.3214   -0.4327 H         1 UNK         0.0745 
     79 H79        33.9902   23.1045   -0.7566 H         1 UNK         0.0705 
     80 H80        33.8479   21.4780   -0.1420 H         1 UNK         0.0705 
     81 H81        33.8710   24.8462    0.8202 H         1 UNK         0.1334 
     82 H82        31.9436   24.3138    4.6108 H         1 UNK         0.1417 
     83 H83        31.8659   21.1621    1.7018 H         1 UNK         0.1562 
     84 H84        31.1896   22.0396    5.2392 H         1 UNK         0.0748 
     85 H85        31.2405   20.7456    4.0742 H         1 UNK         0.0748 
     86 H86        29.6526   23.8799    5.2711 H         1 UNK         0.0940 
     87 H87        27.9556   23.5332    5.2367 H         1 UNK         0.0940 
     88 H88        29.5165   24.7029    2.8769 H         1 UNK         0.0703 
     89 H89        27.7241   24.6225    1.6369 H         1 UNK         0.3081 
     90 H90        25.5327   23.5434    1.1528 H         1 UNK         0.0719 
     91 H91        23.3580   24.7992    2.9054 H         1 UNK         0.0809 
     92 H92        23.0953   23.9271    1.3959 H         1 UNK         0.0809 
     93 H93        23.7375   23.0875    2.7983 H         1 UNK         0.0809 
     94 H94        25.4643   25.4325   -0.0078 H         1 UNK         0.2990 
     95 H95        24.2272   27.6720   -0.4700 H         1 UNK         0.0690 
     96 H96        24.7692   30.0514   -0.0679 H         1 UNK         0.0788 
     97 H97        25.5199   29.6472    1.4719 H         1 UNK         0.0788 
     98 H98        23.7963   29.3991    1.2395 H         1 UNK         0.0788 
     99 H99        27.0582   28.4331   -0.0653 H         1 UNK         0.2993 
    100 H100       27.8717   27.3316   -3.1535 H         1 UNK         0.0949 
    101 H101       29.2454   27.8439   -0.4639 H         1 UNK         0.0767 
    102 H102       29.9001   28.1515   -2.0612 H         1 UNK         0.0767 
    103 H103       28.5454   29.1014   -1.4865 H         1 UNK         0.0767 
    104 H104       28.8502   25.3481   -2.9855 H         1 UNK         0.3013 
    105 H105       28.3051   26.9220    2.2603 H         1 UNK         0.3121 
    106 H106       29.3846   28.6959    4.2560 H         1 UNK         0.0774 
    107 H107       27.3574   30.1915    4.3405 H         1 UNK         0.0815 
    108 H108       26.4145   28.9494    3.5265 H         1 UNK         0.0815 
    109 H109       27.0690   28.6491    5.1315 H         1 UNK         0.0815 
    110 H110       30.8080   29.6793    2.9869 H         1 UNK         0.2987 
    111 H111       30.0989   30.3500    0.1577 H         1 UNK         0.0949 
    112 H112       32.8199   29.9107    1.5044 H         1 UNK         0.0806 
    113 H113       31.9849   28.7342    0.4941 H         1 UNK         0.0806 
    114 H114       32.5506   30.2431   -0.2020 H         1 UNK         0.0806 
    115 H115       30.0124   31.7993    3.0385 H         1 UNK         0.3010 
    116 H116       29.9273   33.8310    3.8613 H         1 UNK         0.0829 
    117 H117       28.8026   34.5690    1.7724 H         1 UNK         0.0813 
    118 H118       29.8007   35.8484    2.4439 H         1 UNK         0.0813 
    119 H119       30.3600   34.9529    1.0422 H         1 UNK         0.0813 
    120 H120       32.6110   33.6691    1.5272 H         1 UNK         0.3038 
    121 H121       34.4730   35.2061    3.1883 H         1 UNK         0.0769 
    122 H122       36.1037   34.5578    1.4089 H         1 UNK         0.0811 
    123 H123       34.6412   35.2241    0.7019 H         1 UNK         0.0811 
    124 H124       34.9147   33.4817    0.6866 H         1 UNK         0.0811 
    125 H125       33.3149   31.9708    3.2386 H         1 UNK         0.3204 
    126 H126       35.1639   31.1546    5.2879 H         1 UNK         0.0748 
    127 H127       35.0128   29.5709    2.6435 H         1 UNK         0.0771 
    128 H128       36.4361   30.4308    3.2272 H         1 UNK         0.0771 
    129 H129       35.8327   29.0350    4.1026 H         1 UNK         0.0771 
    130 H130       34.4148   29.0825    6.1912 H         1 UNK         0.2980 
    131 H131       32.8853   28.0416    7.3294 H         1 UNK         0.0545 
    132 H132       29.8399   27.6212    6.3679 H         1 UNK         0.3459 
    133 H133       29.1919   29.0293    7.1644 H         1 UNK         0.3459 
    134 H134       31.3956   26.4358    6.0195 H         1 UNK         0.0616 
    135 H135       33.0953   26.3662    5.7845 H         1 UNK         0.0616 
    136 H136       33.7572   26.6804    2.2670 H         1 UNK         0.0634 
    137 H137       34.1966   26.1130    3.8522 H         1 UNK         0.0634 
@<TRIPOS>BOND
     1    1    2 1    
     2    1   72 1    
     3    1   73 1    
     4    1   74 1    
     5    2    3 2    
     6    2    4 am   BACKBONE|DICT|INTERRES
     7    4    5 1    
     8    4   75 1    
     9    5    6 1    
    10    5   35 1    
    11    5   76 1    
    12    6    7 1    
    13    6   77 1    
    14    6   78 1    
    15    7    8 1    
    16    8    9 1    
    17    8   79 1    
    18    8   80 1    
    19    9   10 ar   
    20    9   14 ar   
    21   10   11 ar   
    22   10   81 1    
    23   11   12 ar   
    24   11   71 1    
    25   12   13 ar   
    26   12   82 1    
    27   13   14 ar   
    28   13   15 1    
    29   14   83 1    
    30   15   16 1    
    31   15   84 1    
    32   15   85 1    
    33   16   17 1    
    34   17   18 1    
    35   17   86 1    
    36   17   87 1    
    37   18   19 1    
    38   18   37 1    
    39   18   88 1    
    40   19   20 am   BACKBONE|DICT|INTERRES
    41   19   89 1    
    42   20   21 2    
    43   20   22 1    
    44   22   23 1    
    45   22   24 1    
    46   22   90 1    
    47   23   91 1    
    48   23   92 1    
    49   23   93 1    
    50   24   25 am   BACKBONE|DICT|INTERRES
    51   24   94 1    
    52   25   26 2    
    53   25   27 1    
    54   27   28 1    
    55   27   29 1    
    56   27   95 1    
    57   28   96 1    
    58   28   97 1    
    59   28   98 1    
    60   29   30 am   BACKBONE|DICT|INTERRES
    61   29   99 1    
    62   30   31 2    
    63   30   32 1    
    64   32   33 1    
    65   32   34 1    
    66   32  100 1    
    67   33  101 1    
    68   33  102 1    
    69   33  103 1    
    70   34   35 am   BACKBONE|DICT|INTERRES
    71   34  104 1    
    72   35   36 2    
    73   37   38 2    
    74   37   39 am   BACKBONE|DICT|INTERRES
    75   39   40 1    
    76   39  105 1    
    77   40   41 1    
    78   40   42 1    
    79   40  106 1    
    80   41  107 1    
    81   41  108 1    
    82   41  109 1    
    83   42   43 2    
    84   42   44 am   BACKBONE|DICT|INTERRES
    85   44   45 1    
    86   44  110 1    
    87   45   46 1    
    88   45   47 1    
    89   45  111 1    
    90   46  112 1    
    91   46  113 1    
    92   46  114 1    
    93   47   48 2    
    94   47   49 am   BACKBONE|DICT|INTERRES
    95   49   50 1    
    96   49  115 1    
    97   50   51 1    
    98   50   52 1    
    99   50  116 1    
   100   51  117 1    
   101   51  118 1    
   102   51  119 1    
   103   52   53 2    
   104   52   54 am   BACKBONE|DICT|INTERRES
   105   54   55 1    
   106   54  120 1    
   107   55   56 1    
   108   55   57 1    
   109   55  121 1    
   110   56  122 1    
   111   56  123 1    
   112   56  124 1    
   113   57   58 2    
   114   57   59 am   BACKBONE|DICT|INTERRES
   115   59   60 1    
   116   59  125 1    
   117   60   61 1    
   118   60   62 1    
   119   60  126 1    
   120   61  127 1    
   121   61  128 1    
   122   61  129 1    
   123   62   63 2    
   124   62   64 am   BACKBONE|DICT|INTERRES
   125   64   65 1    
   126   64  130 1    
   127   65   66 1    
   128   65   69 1    
   129   65  131 1    
   130   66   67 am   BACKBONE|DICT|INTERRES
   131   66   68 2    
   132   67  132 1    
   133   67  133 1    
   134   69   70 1    
   135   69  134 1    
   136   69  135 1    
   137   70   71 1    
   138   71  136 1    
   139   71  137 1    
@<TRIPOS>SUBSTRUCTURE
     1 UNK         1 GROUP             0       ****    0 ROOT    
