@<TRIPOS>MOLECULE
3R136
137   139    1
SMALL
USER_CHARGES


@<TRIPOS>ATOM
      1 CA         28.0578   23.7227   -2.9247 C.3       0 UNK        -0.1979 
      2 C          28.2599   24.0142   -1.4463 C.2       0 UNK         0.4864 
      3 O          28.0874   25.1553   -1.0247 O.2       0 UNK        -0.5359 
      4 N          28.6281   22.9952   -0.6590 N.am      1 UNK        -0.4318 
      5 CA         28.8631   23.0885    0.7891 C.3       1 UNK         0.0824 
      6 C6         29.7685   21.9205    1.2596 C.3       12 UNK        -0.0944 
      7 S7         30.6857   22.2762    2.7976 S.3       12 UNK        -0.2672 
      8 C8         32.4089   22.3812    2.2212 C.3       12 UNK         0.0333 
      9 C9         32.7830   23.7778    1.7419 C.ar      12 UNK        -0.0807 
     10 C10        33.2578   24.7212    2.6583 C.ar      12 UNK        -0.0894 
     11 C11        33.6993   25.9812    2.2315 C.ar      12 UNK        -0.0804 
     12 C12        33.6425   26.2857    0.8668 C.ar      12 UNK        -0.0824 
     13 C13        33.1571   25.3592   -0.0626 C.ar      12 UNK        -0.0762 
     14 C14        32.7221   24.1069    0.3845 C.ar      12 UNK        -0.0782 
     15 C15        33.1740   25.6738   -1.5571 C.3       12 UNK         0.0230 
     16 S16        32.4067   27.2721   -1.9908 S.3       12 UNK        -0.2608 
     17 C17        30.6519   26.9442   -1.6241 C.3       12 UNK        -0.0989 
     18 CA         29.9687   28.0875   -0.8338 C.3       5 UNK         0.0716 
     19 N          28.5090   27.9777   -0.8935 N.am      5 UNK        -0.4135 
     20 C          27.6436   28.9106   -0.4701 C.2       4 UNK         0.5031 
     21 O          27.9860   29.9822    0.0286 O.2       4 UNK        -0.5229 
     22 CA         26.1379   28.6028   -0.6037 C.3       4 UNK         0.0329 
     23 CB         25.8062   27.6465   -1.7685 C.3       4 UNK        -0.2001 
     24 N          25.4946   28.1189    0.6268 N.am      4 UNK        -0.4303 
     25 C          25.9618   27.2137    1.5003 C.2       3 UNK         0.5044 
     26 O          27.1118   26.7779    1.5001 O.2       3 UNK        -0.5152 
     27 CA         24.9931   26.6699    2.5668 C.3       3 UNK         0.0319 
     28 CB         23.5557   27.2360    2.4977 C.3       3 UNK        -0.2001 
     29 N          25.0066   25.2019    2.5250 N.am      3 UNK        -0.4354 
     30 C          24.6332   24.4249    1.4960 C.2       2 UNK         0.4964 
     31 O          24.0367   24.8297    0.4961 O.2       2 UNK        -0.5047 
     32 CA         25.0698   22.9515    1.5706 C.3       2 UNK         0.0288 
     33 CB         24.1021   22.0161    0.8222 C.3       2 UNK        -0.2113 
     34 N          26.4089   22.8108    0.9958 N.am      2 UNK        -0.4145 
     35 C          27.5482   23.1709    1.6072 C.2       1 UNK         0.5006 
     36 O          27.5800   23.5530    2.7780 O.2       1 UNK        -0.5103 
     37 C          30.4801   28.1602    0.6171 C.2       5 UNK         0.5055 
     38 O          31.3247   29.0053    0.9189 O.2       5 UNK        -0.5220 
     39 N          29.9283   27.3124    1.4974 N.am      6 UNK        -0.4450 
     40 CA         30.2700   27.2823    2.9188 C.3       6 UNK         0.0367 
     41 CB         29.6903   26.0289    3.5857 C.3       6 UNK        -0.1929 
     42 C          29.8203   28.5490    3.6528 C.2       6 UNK         0.5070 
     43 O          30.5353   29.0109    4.5396 O.2       6 UNK        -0.5237 
     44 N          28.6726   29.1067    3.2457 N.am      7 UNK        -0.4739 
     45 CA         28.1634   30.3855    3.7381 C.3       7 UNK         0.0276 
     46 CB         26.6918   30.5554    3.3258 C.3       7 UNK        -0.1927 
     47 C          29.0213   31.5680    3.2576 C.2       7 UNK         0.5013 
     48 O          29.3895   32.4129    4.0734 O.2       7 UNK        -0.5193 
     49 N          29.3414   31.5942    1.9552 N.am      8 UNK        -0.4253 
     50 CA         30.1386   32.6385    1.3068 C.3       8 UNK         0.0242 
     51 CB         30.1067   32.4451   -0.2182 C.3       8 UNK        -0.2000 
     52 C          31.5880   32.7068    1.8122 C.2       8 UNK         0.4948 
     53 O          32.0633   33.7988    2.1263 O.2       8 UNK        -0.5275 
     54 N          32.2610   31.5503    1.8893 N.am      9 UNK        -0.4246 
     55 CA         33.6477   31.4381    2.3550 C.3       9 UNK         0.0261 
     56 CB         34.3394   30.2891    1.6046 C.3       9 UNK        -0.1959 
     57 C          33.7777   31.2974    3.8857 C.2       9 UNK         0.5033 
     58 O          34.9045   31.2645    4.3822 O.2       9 UNK        -0.5390 
     59 N          32.6441   31.2478    4.6017 N.am      10 UNK        -0.4215 
     60 CA         32.5017   31.2143    6.0622 C.3       10 UNK         0.0240 
     61 CB         32.9742   32.5458    6.6853 C.3       10 UNK        -0.1982 
     62 C          33.1444   29.9755    6.7176 C.2       10 UNK         0.4970 
     63 O          33.8889   30.1073    7.6919 O.2       10 UNK        -0.4916 
     64 N          32.8226   28.7925    6.1836 N.am      11 UNK        -0.4279 
     65 CA         33.1291   27.4957    6.8039 C.3       11 UNK         0.1003 
     66 C          32.0883   27.1408    7.9006 C.2       11 UNK         0.5709 
     67 N          32.4841   26.3590    8.8962 N.am      11 UNK        -0.7358 
     68 O          30.9247   27.5354    7.8464 O.2       11 UNK        -0.4999 
     69 C69        33.2378   26.3635    5.7497 C.3       12 UNK        -0.0954 
     70 S70        34.8047   26.4486    4.8206 S.3       12 UNK        -0.2268 
     71 C71        34.2476   27.0441    3.1908 C.3       12 UNK         0.0203 
     72 H72        28.7426   24.3255   -3.5205 H         1 UNK         0.0888 
     73 H73        28.2326   22.6738   -3.1629 H         1 UNK         0.0888 
     74 H74        27.0390   23.9736   -3.2187 H         1 UNK         0.0888 
     75 H75        28.7589   22.0798   -1.0666 H         1 UNK         0.3017 
     76 H76        29.3987   24.0245    0.9652 H         1 UNK         0.0873 
     77 H77        29.1871   21.0075    1.4028 H         1 UNK         0.0745 
     78 H78        30.4955   21.6788    0.4832 H         1 UNK         0.0745 
     79 H79        33.0611   22.1008    3.0498 H         1 UNK         0.0705 
     80 H80        32.5948   21.6413    1.4414 H         1 UNK         0.0705 
     81 H81        33.2975   24.4508    3.7030 H         1 UNK         0.1334 
     82 H82        33.9869   27.2500    0.5191 H         1 UNK         0.1417 
     83 H83        32.3686   23.3729   -0.3268 H         1 UNK         0.1562 
     84 H84        32.6808   24.8848   -2.1271 H         1 UNK         0.0748 
     85 H85        34.2118   25.6877   -1.8924 H         1 UNK         0.0748 
     86 H86        30.5587   25.9979   -1.0891 H         1 UNK         0.0940 
     87 H87        30.1462   26.7976   -2.5799 H         1 UNK         0.0940 
     88 H88        30.2271   29.0326   -1.3161 H         1 UNK         0.0703 
     89 H89        28.1454   27.0597   -1.1415 H         1 UNK         0.3081 
     90 H90        25.6676   29.5600   -0.8346 H         1 UNK         0.0719 
     91 H91        26.3379   27.9221   -2.6804 H         1 UNK         0.0809 
     92 H92        26.0545   26.6123   -1.5333 H         1 UNK         0.0809 
     93 H93        24.7415   27.6741   -2.0002 H         1 UNK         0.0809 
     94 H94        24.5430   28.4297    0.7599 H         1 UNK         0.2990 
     95 H95        25.4145   26.9540    3.5322 H         1 UNK         0.0690 
     96 H96        23.5500   28.3148    2.6589 H         1 UNK         0.0788 
     97 H97        22.9285   26.7976    3.2740 H         1 UNK         0.0788 
     98 H98        23.0737   27.0404    1.5393 H         1 UNK         0.0788 
     99 H99        25.5824   24.7650    3.2337 H         1 UNK         0.2993 
    100 H100       25.0909   22.6451    2.6191 H         1 UNK         0.0949 
    101 H101       24.3950   20.9721    0.9353 H         1 UNK         0.0767 
    102 H102       23.0885   22.1125    1.2137 H         1 UNK         0.0767 
    103 H103       24.0621   22.2385   -0.2451 H         1 UNK         0.0767 
    104 H104       26.4571   22.5392    0.0254 H         1 UNK         0.3013 
    105 H105       29.1338   26.7500    1.2060 H         1 UNK         0.3121 
    106 H106       31.3536   27.2295    2.9940 H         1 UNK         0.0774 
    107 H107       30.0699   25.1243    3.1141 H         1 UNK         0.0815 
    108 H108       29.9647   25.9836    4.6402 H         1 UNK         0.0815 
    109 H109       28.6019   26.0049    3.5335 H         1 UNK         0.0815 
    110 H110       28.1679   28.6570    2.4932 H         1 UNK         0.2987 
    111 H111       28.2080   30.3683    4.8296 H         1 UNK         0.0949 
    112 H112       26.5678   30.5614    2.2427 H         1 UNK         0.0806 
    113 H113       26.0722   29.7547    3.7298 H         1 UNK         0.0806 
    114 H114       26.2897   31.4964    3.7034 H         1 UNK         0.0806 
    115 H115       28.9556   30.8772    1.3436 H         1 UNK         0.3010 
    116 H116       29.6670   33.5969    1.5342 H         1 UNK         0.0829 
    117 H117       30.5165   31.4777   -0.5111 H         1 UNK         0.0813 
    118 H118       29.0886   32.5057   -0.6032 H         1 UNK         0.0813 
    119 H119       30.6906   33.2154   -0.7238 H         1 UNK         0.0813 
    120 H120       31.8115   30.6872    1.5841 H         1 UNK         0.3038 
    121 H121       34.1829   32.3535    2.0936 H         1 UNK         0.0769 
    122 H122       33.7848   29.3598    1.7014 H         1 UNK         0.0811 
    123 H123       35.3500   30.1161    1.9766 H         1 UNK         0.0811 
    124 H124       34.4200   30.5103    0.5403 H         1 UNK         0.0811 
    125 H125       31.7728   31.2427    4.0885 H         1 UNK         0.3204 
    126 H126       31.4306   31.1307    6.2541 H         1 UNK         0.0748 
    127 H127       32.7616   32.5743    7.7547 H         1 UNK         0.0771 
    128 H128       34.0478   32.6928    6.5630 H         1 UNK         0.0771 
    129 H129       32.4652   33.3966    6.2321 H         1 UNK         0.0771 
    130 H130       32.1049   28.7858    5.4620 H         1 UNK         0.2980 
    131 H131       34.0959   27.5773    7.3053 H         1 UNK         0.0545 
    132 H132       31.8215   26.1065    9.6126 H         1 UNK         0.3459 
    133 H133       33.4320   26.0195    8.9486 H         1 UNK         0.3459 
    134 H134       32.3864   26.3816    5.0686 H         1 UNK         0.0616 
    135 H135       33.2186   25.3827    6.2287 H         1 UNK         0.0616 
    136 H136       35.1064   27.5261    2.7218 H         1 UNK         0.0634 
    137 H137       33.5029   27.8244    3.3435 H         1 UNK         0.0634 
@<TRIPOS>BOND
     1    1    2 1    
     2    1   72 1    
     3    1   73 1    
     4    1   74 1    
     5    2    3 2    
     6    2    4 am   BACKBONE|DICT|INTERRES
     7    4    5 1    
     8    4   75 1    
     9    5    6 1    
    10    5   35 1    
    11    5   76 1    
    12    6    7 1    
    13    6   77 1    
    14    6   78 1    
    15    7    8 1    
    16    8    9 1    
    17    8   79 1    
    18    8   80 1    
    19    9   10 ar   
    20    9   14 ar   
    21   10   11 ar   
    22   10   81 1    
    23   11   12 ar   
    24   11   71 1    
    25   12   13 ar   
    26   12   82 1    
    27   13   14 ar   
    28   13   15 1    
    29   14   83 1    
    30   15   16 1    
    31   15   84 1    
    32   15   85 1    
    33   16   17 1    
    34   17   18 1    
    35   17   86 1    
    36   17   87 1    
    37   18   19 1    
    38   18   37 1    
    39   18   88 1    
    40   19   20 am   BACKBONE|DICT|INTERRES
    41   19   89 1    
    42   20   21 2    
    43   20   22 1    
    44   22   23 1    
    45   22   24 1    
    46   22   90 1    
    47   23   91 1    
    48   23   92 1    
    49   23   93 1    
    50   24   25 am   BACKBONE|DICT|INTERRES
    51   24   94 1    
    52   25   26 2    
    53   25   27 1    
    54   27   28 1    
    55   27   29 1    
    56   27   95 1    
    57   28   96 1    
    58   28   97 1    
    59   28   98 1    
    60   29   30 am   BACKBONE|DICT|INTERRES
    61   29   99 1    
    62   30   31 2    
    63   30   32 1    
    64   32   33 1    
    65   32   34 1    
    66   32  100 1    
    67   33  101 1    
    68   33  102 1    
    69   33  103 1    
    70   34   35 am   BACKBONE|DICT|INTERRES
    71   34  104 1    
    72   35   36 2    
    73   37   38 2    
    74   37   39 am   BACKBONE|DICT|INTERRES
    75   39   40 1    
    76   39  105 1    
    77   40   41 1    
    78   40   42 1    
    79   40  106 1    
    80   41  107 1    
    81   41  108 1    
    82   41  109 1    
    83   42   43 2    
    84   42   44 am   BACKBONE|DICT|INTERRES
    85   44   45 1    
    86   44  110 1    
    87   45   46 1    
    88   45   47 1    
    89   45  111 1    
    90   46  112 1    
    91   46  113 1    
    92   46  114 1    
    93   47   48 2    
    94   47   49 am   BACKBONE|DICT|INTERRES
    95   49   50 1    
    96   49  115 1    
    97   50   51 1    
    98   50   52 1    
    99   50  116 1    
   100   51  117 1    
   101   51  118 1    
   102   51  119 1    
   103   52   53 2    
   104   52   54 am   BACKBONE|DICT|INTERRES
   105   54   55 1    
   106   54  120 1    
   107   55   56 1    
   108   55   57 1    
   109   55  121 1    
   110   56  122 1    
   111   56  123 1    
   112   56  124 1    
   113   57   58 2    
   114   57   59 am   BACKBONE|DICT|INTERRES
   115   59   60 1    
   116   59  125 1    
   117   60   61 1    
   118   60   62 1    
   119   60  126 1    
   120   61  127 1    
   121   61  128 1    
   122   61  129 1    
   123   62   63 2    
   124   62   64 am   BACKBONE|DICT|INTERRES
   125   64   65 1    
   126   64  130 1    
   127   65   66 1    
   128   65   69 1    
   129   65  131 1    
   130   66   67 am   BACKBONE|DICT|INTERRES
   131   66   68 2    
   132   67  132 1    
   133   67  133 1    
   134   69   70 1    
   135   69  134 1    
   136   69  135 1    
   137   70   71 1    
   138   71  136 1    
   139   71  137 1    
@<TRIPOS>SUBSTRUCTURE
     1 UNK         1 GROUP             0       ****    0 ROOT    
