@<TRIPOS>MOLECULE
3R136
137   139    1
SMALL
USER_CHARGES


@<TRIPOS>ATOM
      1 CA         24.0002   28.2201    2.6779 C.3       0 UNK        -0.1979 
      2 C          24.7514   26.9696    3.1103 C.2       0 UNK         0.4864 
      3 O          24.3301   26.2978    4.0538 O.2       0 UNK        -0.5359 
      4 N          25.8644   26.6629    2.4335 N.am      1 UNK        -0.4318 
      5 CA         26.6891   25.4749    2.6731 C.3       1 UNK         0.0824 
      6 C6         28.1700   25.7086    2.2616 C.3       12 UNK        -0.0944 
      7 S7         29.3155   25.0437    3.5179 S.3       12 UNK        -0.2672 
      8 C8         30.7066   24.4338    2.5127 C.3       12 UNK         0.0333 
      9 C9         31.3490   25.5459    1.6965 C.ar      12 UNK        -0.0807 
     10 C10        32.0049   26.6040    2.3325 C.ar      12 UNK        -0.0894 
     11 C11        32.5703   27.6407    1.5839 C.ar      12 UNK        -0.0804 
     12 C12        32.4616   27.6213    0.1899 C.ar      12 UNK        -0.0824 
     13 C13        31.8059   26.5693   -0.4578 C.ar      12 UNK        -0.0762 
     14 C14        31.2750   25.5227    0.3020 C.ar      12 UNK        -0.0782 
     15 C15        31.6467   26.5824   -1.9753 C.3       12 UNK         0.0230 
     16 S16        29.9109   26.3929   -2.5171 S.3       12 UNK        -0.2608 
     17 C17        29.0522   27.5727   -1.4219 C.3       12 UNK        -0.0989 
     18 CA         27.5696   27.8118   -1.7992 C.3       5 UNK         0.0716 
     19 N          26.8177   26.5574   -1.8871 N.am      5 UNK        -0.4135 
     20 C          25.6311   26.4052   -2.4880 C.2       4 UNK         0.5031 
     21 O          25.0945   27.2837   -3.1664 O.2       4 UNK        -0.5229 
     22 CA         24.9013   25.0657   -2.2601 C.3       4 UNK         0.0329 
     23 CB         24.0480   24.6279   -3.4704 C.3       4 UNK        -0.2001 
     24 N          25.7770   23.9862   -1.7806 N.am      4 UNK        -0.4303 
     25 C          26.7197   23.3194   -2.4673 C.2       3 UNK         0.5044 
     26 O          26.9519   23.5071   -3.6616 O.2       3 UNK        -0.5152 
     27 CA         27.5775   22.2875   -1.7009 C.3       3 UNK         0.0319 
     28 CB         29.0771   22.5641   -1.9034 C.3       3 UNK        -0.2001 
     29 N          27.3033   22.2445   -0.2610 N.am      3 UNK        -0.4354 
     30 C          26.3070   21.5595    0.3171 C.2       2 UNK         0.4964 
     31 O          25.5311   20.8293   -0.2994 O.2       2 UNK        -0.5047 
     32 CA         26.1234   21.7441    1.8368 C.3       2 UNK         0.0288 
     33 CB         26.8478   20.6248    2.6023 C.3       2 UNK        -0.2113 
     34 N          26.5643   23.0464    2.3585 N.am      2 UNK        -0.4145 
     35 C          26.0903   24.2396    1.9706 C.2       1 UNK         0.5006 
     36 O          25.2593   24.3786    1.0688 O.2       1 UNK        -0.5103 
     37 C          26.9220   28.7304   -0.7437 C.2       5 UNK         0.5055 
     38 O          26.2313   28.2386    0.1517 O.2       5 UNK        -0.5220 
     39 N          27.2181   30.0352   -0.8116 N.am      6 UNK        -0.4450 
     40 CA         26.7699   31.0378    0.1654 C.3       6 UNK         0.0367 
     41 CB         27.0889   32.4423   -0.3731 C.3       6 UNK        -0.1929 
     42 C          27.3604   30.8597    1.5814 C.2       6 UNK         0.5070 
     43 O          26.7639   31.3577    2.5367 O.2       6 UNK        -0.5237 
     44 N          28.4981   30.1521    1.6771 N.am      7 UNK        -0.4739 
     45 CA         29.3112   29.8672    2.8685 C.3       7 UNK         0.0276 
     46 CB         28.4679   29.2384    4.0001 C.3       7 UNK        -0.1927 
     47 C          30.0987   31.0932    3.3701 C.2       7 UNK         0.5013 
     48 O          29.8383   32.2276    2.9622 O.2       7 UNK        -0.5193 
     49 N          31.0675   30.8286    4.2517 N.am      8 UNK        -0.4253 
     50 CA         31.9466   31.7987    4.8958 C.3       8 UNK         0.0242 
     51 CB         32.9780   32.3584    3.8950 C.3       8 UNK        -0.2000 
     52 C          32.6615   31.0784    6.0412 C.2       8 UNK         0.4948 
     53 O          32.9364   29.8810    5.9224 O.2       8 UNK        -0.5275 
     54 N          32.9927   31.8208    7.1059 N.am      9 UNK        -0.4246 
     55 CA         33.7156   31.3125    8.2794 C.3       9 UNK         0.0261 
     56 CB         33.7209   32.3839    9.3817 C.3       9 UNK        -0.1959 
     57 C          35.1518   30.8539    7.9674 C.2       9 UNK         0.5033 
     58 O          35.6579   29.9514    8.6361 O.2       9 UNK        -0.5390 
     59 N          35.7660   31.4534    6.9366 N.am      10 UNK        -0.4215 
     60 CA         37.0998   31.1243    6.4249 C.3       10 UNK         0.0240 
     61 CB         37.4726   32.1247    5.3183 C.3       10 UNK        -0.1982 
     62 C          37.2420   29.6795    5.9093 C.2       10 UNK         0.4970 
     63 O          38.3579   29.1580    5.9057 O.2       10 UNK        -0.4916 
     64 N          36.1274   29.0593    5.4995 N.am      11 UNK        -0.4279 
     65 CA         36.0647   27.6470    5.0958 C.3       11 UNK         0.1003 
     66 C          36.0155   26.6517    6.2934 C.2       11 UNK         0.5709 
     67 N          35.9108   27.0979    7.5413 N.am      11 UNK        -0.7358 
     68 O          36.0892   25.4427    6.0864 O.2       11 UNK        -0.4999 
     69 C69        34.9085   27.3844    4.0963 C.3       12 UNK        -0.0954 
     70 S70        35.0288   28.4178    2.5950 S.3       12 UNK        -0.2268 
     71 C71        33.2791   28.7942    2.2773 C.3       12 UNK         0.0203 
     72 H72        24.6668   28.9435    2.2086 H         1 UNK         0.0888 
     73 H73        23.2170   27.9607    1.9665 H         1 UNK         0.0888 
     74 H74        23.5375   28.7036    3.5378 H         1 UNK         0.0888 
     75 H75        26.0994   27.2198    1.6119 H         1 UNK         0.3017 
     76 H76        26.6474   25.2764    3.7467 H         1 UNK         0.0873 
     77 H77        28.3900   26.7727    2.1692 H         1 UNK         0.0745 
     78 H78        28.3972   25.2877    1.2802 H         1 UNK         0.0745 
     79 H79        30.3557   23.6248    1.8700 H         1 UNK         0.0705 
     80 H80        31.4562   23.9975    3.1742 H         1 UNK         0.0705 
     81 H81        32.0649   26.6213    3.4119 H         1 UNK         0.1334 
     82 H82        32.8837   28.4312   -0.3895 H         1 UNK         0.1417 
     83 H83        30.7731   24.7066   -0.1960 H         1 UNK         0.1562 
     84 H84        32.2420   25.7751   -2.4038 H         1 UNK         0.0748 
     85 H85        32.0381   27.5102   -2.3952 H         1 UNK         0.0748 
     86 H86        29.6081   28.5122   -1.4429 H         1 UNK         0.0940 
     87 H87        29.1228   27.1994   -0.3984 H         1 UNK         0.0940 
     88 H88        27.5266   28.3106   -2.7698 H         1 UNK         0.0703 
     89 H89        27.1739   25.7873   -1.3452 H         1 UNK         0.3081 
     90 H90        24.2102   25.2557   -1.4375 H         1 UNK         0.0719 
     91 H91        23.2725   25.3637   -3.6862 H         1 UNK         0.0809 
     92 H92        24.6471   24.5199   -4.3747 H         1 UNK         0.0809 
     93 H93        23.5475   23.6784   -3.2814 H         1 UNK         0.0809 
     94 H94        25.6687   23.7783   -0.7922 H         1 UNK         0.2990 
     95 H95        27.3563   21.3080   -2.1301 H         1 UNK         0.0690 
     96 H96        29.6938   21.8378   -1.3736 H         1 UNK         0.0788 
     97 H97        29.3488   23.5591   -1.5548 H         1 UNK         0.0788 
     98 H98        29.3487   22.5068   -2.9584 H         1 UNK         0.0788 
     99 H99        27.8983   22.8041    0.3310 H         1 UNK         0.2993 
    100 H100       25.0534   21.6604    2.0393 H         1 UNK         0.0949 
    101 H101       27.9292   20.6785    2.4688 H         1 UNK         0.0767 
    102 H102       26.6376   20.6736    3.6710 H         1 UNK         0.0767 
    103 H103       26.5248   19.6417    2.2562 H         1 UNK         0.0767 
    104 H104       27.2617   23.0239    3.0899 H         1 UNK         0.3013 
    105 H105       27.7927   30.3705   -1.5721 H         1 UNK         0.3121 
    106 H106       25.6852   30.9476    0.2581 H         1 UNK         0.0774 
    107 H107       26.7358   33.2123    0.3146 H         1 UNK         0.0815 
    108 H108       28.1617   32.5909   -0.5022 H         1 UNK         0.0815 
    109 H109       26.6037   32.6216   -1.3327 H         1 UNK         0.0815 
    110 H110       28.8994   29.8363    0.8071 H         1 UNK         0.2987 
    111 H111       30.0437   29.1248    2.5469 H         1 UNK         0.0949 
    112 H112       27.8000   28.4645    3.6260 H         1 UNK         0.0806 
    113 H113       29.1050   28.7754    4.7542 H         1 UNK         0.0806 
    114 H114       27.8545   29.9821    4.5100 H         1 UNK         0.0806 
    115 H115       31.2213   29.8790    4.5693 H         1 UNK         0.3010 
    116 H116       31.3390   32.6108    5.3006 H         1 UNK         0.0829 
    117 H117       32.4956   32.8690    3.0617 H         1 UNK         0.0813 
    118 H118       33.6355   33.0842    4.3747 H         1 UNK         0.0813 
    119 H119       33.6093   31.5703    3.4826 H         1 UNK         0.0813 
    120 H120       32.7310   32.7968    7.1226 H         1 UNK         0.3038 
    121 H121       33.1722   30.4414    8.6523 H         1 UNK         0.0769 
    122 H122       34.2318   32.0213   10.2750 H         1 UNK         0.0811 
    123 H123       32.7072   32.6535    9.6790 H         1 UNK         0.0811 
    124 H124       34.2314   33.2931    9.0615 H         1 UNK         0.0811 
    125 H125       35.2670   32.1874    6.4563 H         1 UNK         0.3204 
    126 H126       37.8055   31.2438    7.2496 H         1 UNK         0.0748 
    127 H127       38.4744   31.9266    4.9340 H         1 UNK         0.0771 
    128 H128       36.7834   32.0685    4.4744 H         1 UNK         0.0771 
    129 H129       37.4686   33.1497    5.6899 H         1 UNK         0.0771 
    130 H130       35.2398   29.5401    5.5553 H         1 UNK         0.2980 
    131 H131       36.9917   27.4138    4.5686 H         1 UNK         0.0545 
    132 H132       35.8877   26.4324    8.2971 H         1 UNK         0.3459 
    133 H133       35.8570   28.0891    7.7450 H         1 UNK         0.3459 
    134 H134       34.9015   26.3411    3.7756 H         1 UNK         0.0616 
    135 H135       33.9518   27.5611    4.5899 H         1 UNK         0.0616 
    136 H136       32.7828   29.0330    3.2162 H         1 UNK         0.0634 
    137 H137       33.2189   29.6943    1.6637 H         1 UNK         0.0634 
@<TRIPOS>BOND
     1    1    2 1    
     2    1   72 1    
     3    1   73 1    
     4    1   74 1    
     5    2    3 2    
     6    2    4 am   BACKBONE|DICT|INTERRES
     7    4    5 1    
     8    4   75 1    
     9    5    6 1    
    10    5   35 1    
    11    5   76 1    
    12    6    7 1    
    13    6   77 1    
    14    6   78 1    
    15    7    8 1    
    16    8    9 1    
    17    8   79 1    
    18    8   80 1    
    19    9   10 ar   
    20    9   14 ar   
    21   10   11 ar   
    22   10   81 1    
    23   11   12 ar   
    24   11   71 1    
    25   12   13 ar   
    26   12   82 1    
    27   13   14 ar   
    28   13   15 1    
    29   14   83 1    
    30   15   16 1    
    31   15   84 1    
    32   15   85 1    
    33   16   17 1    
    34   17   18 1    
    35   17   86 1    
    36   17   87 1    
    37   18   19 1    
    38   18   37 1    
    39   18   88 1    
    40   19   20 am   BACKBONE|DICT|INTERRES
    41   19   89 1    
    42   20   21 2    
    43   20   22 1    
    44   22   23 1    
    45   22   24 1    
    46   22   90 1    
    47   23   91 1    
    48   23   92 1    
    49   23   93 1    
    50   24   25 am   BACKBONE|DICT|INTERRES
    51   24   94 1    
    52   25   26 2    
    53   25   27 1    
    54   27   28 1    
    55   27   29 1    
    56   27   95 1    
    57   28   96 1    
    58   28   97 1    
    59   28   98 1    
    60   29   30 am   BACKBONE|DICT|INTERRES
    61   29   99 1    
    62   30   31 2    
    63   30   32 1    
    64   32   33 1    
    65   32   34 1    
    66   32  100 1    
    67   33  101 1    
    68   33  102 1    
    69   33  103 1    
    70   34   35 am   BACKBONE|DICT|INTERRES
    71   34  104 1    
    72   35   36 2    
    73   37   38 2    
    74   37   39 am   BACKBONE|DICT|INTERRES
    75   39   40 1    
    76   39  105 1    
    77   40   41 1    
    78   40   42 1    
    79   40  106 1    
    80   41  107 1    
    81   41  108 1    
    82   41  109 1    
    83   42   43 2    
    84   42   44 am   BACKBONE|DICT|INTERRES
    85   44   45 1    
    86   44  110 1    
    87   45   46 1    
    88   45   47 1    
    89   45  111 1    
    90   46  112 1    
    91   46  113 1    
    92   46  114 1    
    93   47   48 2    
    94   47   49 am   BACKBONE|DICT|INTERRES
    95   49   50 1    
    96   49  115 1    
    97   50   51 1    
    98   50   52 1    
    99   50  116 1    
   100   51  117 1    
   101   51  118 1    
   102   51  119 1    
   103   52   53 2    
   104   52   54 am   BACKBONE|DICT|INTERRES
   105   54   55 1    
   106   54  120 1    
   107   55   56 1    
   108   55   57 1    
   109   55  121 1    
   110   56  122 1    
   111   56  123 1    
   112   56  124 1    
   113   57   58 2    
   114   57   59 am   BACKBONE|DICT|INTERRES
   115   59   60 1    
   116   59  125 1    
   117   60   61 1    
   118   60   62 1    
   119   60  126 1    
   120   61  127 1    
   121   61  128 1    
   122   61  129 1    
   123   62   63 2    
   124   62   64 am   BACKBONE|DICT|INTERRES
   125   64   65 1    
   126   64  130 1    
   127   65   66 1    
   128   65   69 1    
   129   65  131 1    
   130   66   67 am   BACKBONE|DICT|INTERRES
   131   66   68 2    
   132   67  132 1    
   133   67  133 1    
   134   69   70 1    
   135   69  134 1    
   136   69  135 1    
   137   70   71 1    
   138   71  136 1    
   139   71  137 1    
@<TRIPOS>SUBSTRUCTURE
     1 UNK         1 GROUP             0       ****    0 ROOT    
