@<TRIPOS>MOLECULE
3R136
137   139    1
SMALL
USER_CHARGES


@<TRIPOS>ATOM
      1 CA         30.8847   28.2743    2.1269 C.3       0 UNK        -0.1979 
      2 C          30.0651   27.0422    2.4554 C.2       0 UNK         0.4864 
      3 O          29.2592   26.6188    1.6280 O.2       0 UNK        -0.5359 
      4 N          30.2541   26.4838    3.6560 N.am      1 UNK        -0.4318 
      5 CA         29.6492   25.2533    4.1823 C.3       1 UNK         0.0824 
      6 C6         29.9880   23.9808    3.3579 C.3       12 UNK        -0.0944 
      7 S7         31.7584   23.5517    3.4202 S.3       12 UNK        -0.2672 
      8 C8         32.2032   23.4430    1.6506 C.3       12 UNK         0.0333 
      9 C9         32.6998   24.7622    1.0679 C.ar      12 UNK        -0.0807 
     10 C10        33.6970   25.4855    1.7267 C.ar      12 UNK        -0.0894 
     11 C11        34.1954   26.6740    1.1913 C.ar      12 UNK        -0.0804 
     12 C12        33.7033   27.1349   -0.0332 C.ar      12 UNK        -0.0824 
     13 C13        32.7202   26.4116   -0.7188 C.ar      12 UNK        -0.0762 
     14 C14        32.2160   25.2307   -0.1592 C.ar      12 UNK        -0.0782 
     15 C15        32.2410   26.8885   -2.0839 C.3       12 UNK         0.0230 
     16 S16        30.8079   28.0034   -1.9653 S.3       12 UNK        -0.2608 
     17 C17        29.4416   26.8084   -1.7665 C.3       12 UNK        -0.0989 
     18 CA         28.0240   27.3909   -2.0131 C.3       5 UNK         0.0716 
     19 N          26.9725   26.4282   -1.6895 N.am      5 UNK        -0.4135 
     20 C          26.4062   25.5922   -2.5702 C.2       4 UNK         0.5031 
     21 O          26.7571   25.5052   -3.7482 O.2       4 UNK        -0.5229 
     22 CA         25.2546   24.6891   -2.0782 C.3       4 UNK         0.0329 
     23 CB         25.7703   23.2648   -1.8145 C.3       4 UNK        -0.2001 
     24 N          24.5801   25.1779   -0.8737 N.am      4 UNK        -0.4303 
     25 C          23.8634   26.3068   -0.7856 C.2       3 UNK         0.5044 
     26 O          23.5792   27.0078   -1.7573 O.2       3 UNK        -0.5152 
     27 CA         23.4002   26.7525    0.6191 C.3       3 UNK         0.0319 
     28 CB         21.8906   26.5080    0.7806 C.3       3 UNK        -0.2001 
     29 N          24.0999   26.1536    1.7690 N.am      3 UNK        -0.4354 
     30 C          25.4245   26.1082    1.9752 C.2       2 UNK         0.4964 
     31 O          26.2552   26.4977    1.1529 O.2       2 UNK        -0.5047 
     32 CA         25.8951   25.4847    3.2966 C.3       2 UNK         0.0288 
     33 CB         25.3968   24.0309    3.4437 C.3       2 UNK        -0.2113 
     34 N          27.3549   25.5117    3.3398 N.am      2 UNK        -0.4145 
     35 C          28.1279   25.3644    4.4197 C.2       1 UNK         0.5006 
     36 O          27.6867   25.2762    5.5672 O.2       1 UNK        -0.5103 
     37 C          27.7059   28.7004   -1.2717 C.2       5 UNK         0.5055 
     38 O          27.3014   29.6695   -1.9163 O.2       5 UNK        -0.5220 
     39 N          27.8602   28.6968    0.0611 N.am      6 UNK        -0.4450 
     40 CA         27.5407   29.7915    0.9897 C.3       6 UNK         0.0367 
     41 CB         26.0221   30.0658    1.0198 C.3       6 UNK        -0.1929 
     42 C          28.3707   31.0746    0.7720 C.2       6 UNK         0.5070 
     43 O          27.9195   32.1646    1.1260 O.2       6 UNK        -0.5237 
     44 N          29.5857   30.9276    0.2241 N.am      7 UNK        -0.4739 
     45 CA         30.5543   32.0118    0.0185 C.3       7 UNK         0.0276 
     46 CB         31.6645   31.5088   -0.9189 C.3       7 UNK        -0.1927 
     47 C          31.1672   32.5629    1.3228 C.2       7 UNK         0.5013 
     48 O          31.7067   33.6701    1.3142 O.2       7 UNK        -0.5193 
     49 N          31.0819   31.7843    2.4058 N.am      8 UNK        -0.4253 
     50 CA         31.5681   32.0682    3.7515 C.3       8 UNK         0.0242 
     51 CB         33.1103   31.9901    3.7993 C.3       8 UNK        -0.2000 
     52 C          30.8755   31.0867    4.7149 C.2       8 UNK         0.4948 
     53 O          29.8084   30.5632    4.3810 O.2       8 UNK        -0.5275 
     54 N          31.4822   30.8580    5.8862 N.am      9 UNK        -0.4246 
     55 CA         31.0293   29.9074    6.9052 C.3       9 UNK         0.0261 
     56 CB         31.4338   30.4459    8.2936 C.3       9 UNK        -0.1959 
     57 C          31.5616   28.4859    6.6208 C.2       9 UNK         0.5033 
     58 O          31.7214   28.1019    5.4601 O.2       9 UNK        -0.5390 
     59 N          31.8380   27.7084    7.6754 N.am      10 UNK        -0.4215 
     60 CA         32.3803   26.3473    7.6075 C.3       10 UNK         0.0240 
     61 CB         32.0318   25.6066    8.9124 C.3       10 UNK        -0.1982 
     62 C          33.8928   26.3337    7.2988 C.2       10 UNK         0.4970 
     63 O          34.6806   25.8088    8.0875 O.2       10 UNK        -0.4916 
     64 N          34.2701   26.9201    6.1578 N.am      11 UNK        -0.4279 
     65 CA         35.6400   26.9639    5.6207 C.3       11 UNK         0.1003 
     66 C          36.1690   25.6171    5.0427 C.2       11 UNK         0.5709 
     67 N          35.3662   24.5635    4.9491 N.am      11 UNK        -0.7358 
     68 O          37.3413   25.5218    4.6873 O.2       11 UNK        -0.4999 
     69 C69        35.8402   28.1561    4.6404 C.3       12 UNK        -0.0954 
     70 S70        34.5413   28.3076    3.3672 S.3       12 UNK        -0.2268 
     71 C71        35.2693   27.4400    1.9470 C.3       12 UNK         0.0203 
     72 H72        30.2480   29.1486    2.1927 H         1 UNK         0.0888 
     73 H73        31.7155   28.4038    2.8175 H         1 UNK         0.0888 
     74 H74        31.2870   28.2072    1.1177 H         1 UNK         0.0888 
     75 H75        30.8776   26.9650    4.3033 H         1 UNK         0.3017 
     76 H76        30.0910   25.1232    5.1713 H         1 UNK         0.0873 
     77 H77        29.6666   24.0915    2.3213 H         1 UNK         0.0745 
     78 H78        29.4443   23.1176    3.7471 H         1 UNK         0.0745 
     79 H79        31.3592   23.0517    1.0808 H         1 UNK         0.0705 
     80 H80        33.0029   22.7087    1.5469 H         1 UNK         0.0705 
     81 H81        34.0857   25.1240    2.6671 H         1 UNK         0.1334 
     82 H82        34.0911   28.0508   -0.4578 H         1 UNK         0.1417 
     83 H83        31.4605   24.6676   -0.6895 H         1 UNK         0.1562 
     84 H84        32.0014   26.0377   -2.7234 H         1 UNK         0.0748 
     85 H85        33.0488   27.4204   -2.5889 H         1 UNK         0.0748 
     86 H86        29.5118   26.3636   -0.7771 H         1 UNK         0.0940 
     87 H87        29.6034   25.9846   -2.4631 H         1 UNK         0.0940 
     88 H88        27.9622   27.6368   -3.0758 H         1 UNK         0.0703 
     89 H89        26.6275   26.4522   -0.7318 H         1 UNK         0.3081 
     90 H90        24.5135   24.6434   -2.8790 H         1 UNK         0.0719 
     91 H91        26.2518   22.8530   -2.7027 H         1 UNK         0.0809 
     92 H92        26.5039   23.2445   -1.0074 H         1 UNK         0.0809 
     93 H93        24.9567   22.5899   -1.5480 H         1 UNK         0.0809 
     94 H94        24.7660   24.6772   -0.0174 H         1 UNK         0.2990 
     95 H95        23.5715   27.8287    0.6715 H         1 UNK         0.0690 
     96 H96        21.3284   26.9664   -0.0345 H         1 UNK         0.0788 
     97 H97        21.5141   26.9380    1.7090 H         1 UNK         0.0788 
     98 H98        21.6535   25.4433    0.7811 H         1 UNK         0.0788 
     99 H99        23.5015   25.7852    2.4944 H         1 UNK         0.2993 
    100 H100       25.5064   26.0959    4.1136 H         1 UNK         0.0949 
    101 H101       25.7380   23.5850    4.3780 H         1 UNK         0.0767 
    102 H102       24.3078   23.9760    3.4505 H         1 UNK         0.0767 
    103 H103       25.7530   23.4013    2.6272 H         1 UNK         0.0767 
    104 H104       27.8095   25.7255    2.4515 H         1 UNK         0.3013 
    105 H105       28.1913   27.8413    0.5053 H         1 UNK         0.3121 
    106 H106       27.8157   29.4267    1.9804 H         1 UNK         0.0774 
    107 H107       25.6635   30.4752    0.0752 H         1 UNK         0.0815 
    108 H108       25.4627   29.1554    1.2267 H         1 UNK         0.0815 
    109 H109       25.7671   30.7816    1.8021 H         1 UNK         0.0815 
    110 H110       29.8609   30.0060   -0.0860 H         1 UNK         0.2987 
    111 H111       30.0376   32.8401   -0.4714 H         1 UNK         0.0949 
    112 H112       32.3958   32.2938   -1.1168 H         1 UNK         0.0806 
    113 H113       32.2026   30.6622   -0.4901 H         1 UNK         0.0806 
    114 H114       31.2597   31.1963   -1.8818 H         1 UNK         0.0806 
    115 H115       30.5356   30.9365    2.3446 H         1 UNK         0.3010 
    116 H116       31.2502   33.0755    4.0273 H         1 UNK         0.0829 
    117 H117       33.4633   30.9795    3.5985 H         1 UNK         0.0813 
    118 H118       33.5685   32.6501    3.0629 H         1 UNK         0.0813 
    119 H119       33.5006   32.2931    4.7709 H         1 UNK         0.0813 
    120 H120       32.3735   31.3006    6.0544 H         1 UNK         0.3038 
    121 H121       29.9393   29.8477    6.8744 H         1 UNK         0.0769 
    122 H122       32.5158   30.4388    8.4342 H         1 UNK         0.0811 
    123 H123       30.9862   29.8617    9.0984 H         1 UNK         0.0811 
    124 H124       31.0911   31.4720    8.4302 H         1 UNK         0.0811 
    125 H125       31.7153   28.0964    8.5995 H         1 UNK         0.3204 
    126 H126       31.8873   25.8164    6.7904 H         1 UNK         0.0748 
    127 H127       32.3828   24.5741    8.8821 H         1 UNK         0.0771 
    128 H128       32.4877   26.0814    9.7822 H         1 UNK         0.0771 
    129 H129       30.9540   25.5738    9.0738 H         1 UNK         0.0771 
    130 H130       33.5524   27.3451    5.5779 H         1 UNK         0.2980 
    131 H131       36.2949   27.1620    6.4712 H         1 UNK         0.0545 
    132 H132       35.7322   23.6979    4.5865 H         1 UNK         0.3459 
    133 H133       34.4048   24.6228    5.2408 H         1 UNK         0.3459 
    134 H134       36.8235   28.1309    4.1673 H         1 UNK         0.0616 
    135 H135       35.8225   29.0846    5.2127 H         1 UNK         0.0616 
    136 H136       35.7656   28.1644    1.2997 H         1 UNK         0.0634 
    137 H137       36.0386   26.7426    2.2801 H         1 UNK         0.0634 
@<TRIPOS>BOND
     1    1    2 1    
     2    1   72 1    
     3    1   73 1    
     4    1   74 1    
     5    2    3 2    
     6    2    4 am   BACKBONE|DICT|INTERRES
     7    4    5 1    
     8    4   75 1    
     9    5    6 1    
    10    5   35 1    
    11    5   76 1    
    12    6    7 1    
    13    6   77 1    
    14    6   78 1    
    15    7    8 1    
    16    8    9 1    
    17    8   79 1    
    18    8   80 1    
    19    9   10 ar   
    20    9   14 ar   
    21   10   11 ar   
    22   10   81 1    
    23   11   12 ar   
    24   11   71 1    
    25   12   13 ar   
    26   12   82 1    
    27   13   14 ar   
    28   13   15 1    
    29   14   83 1    
    30   15   16 1    
    31   15   84 1    
    32   15   85 1    
    33   16   17 1    
    34   17   18 1    
    35   17   86 1    
    36   17   87 1    
    37   18   19 1    
    38   18   37 1    
    39   18   88 1    
    40   19   20 am   BACKBONE|DICT|INTERRES
    41   19   89 1    
    42   20   21 2    
    43   20   22 1    
    44   22   23 1    
    45   22   24 1    
    46   22   90 1    
    47   23   91 1    
    48   23   92 1    
    49   23   93 1    
    50   24   25 am   BACKBONE|DICT|INTERRES
    51   24   94 1    
    52   25   26 2    
    53   25   27 1    
    54   27   28 1    
    55   27   29 1    
    56   27   95 1    
    57   28   96 1    
    58   28   97 1    
    59   28   98 1    
    60   29   30 am   BACKBONE|DICT|INTERRES
    61   29   99 1    
    62   30   31 2    
    63   30   32 1    
    64   32   33 1    
    65   32   34 1    
    66   32  100 1    
    67   33  101 1    
    68   33  102 1    
    69   33  103 1    
    70   34   35 am   BACKBONE|DICT|INTERRES
    71   34  104 1    
    72   35   36 2    
    73   37   38 2    
    74   37   39 am   BACKBONE|DICT|INTERRES
    75   39   40 1    
    76   39  105 1    
    77   40   41 1    
    78   40   42 1    
    79   40  106 1    
    80   41  107 1    
    81   41  108 1    
    82   41  109 1    
    83   42   43 2    
    84   42   44 am   BACKBONE|DICT|INTERRES
    85   44   45 1    
    86   44  110 1    
    87   45   46 1    
    88   45   47 1    
    89   45  111 1    
    90   46  112 1    
    91   46  113 1    
    92   46  114 1    
    93   47   48 2    
    94   47   49 am   BACKBONE|DICT|INTERRES
    95   49   50 1    
    96   49  115 1    
    97   50   51 1    
    98   50   52 1    
    99   50  116 1    
   100   51  117 1    
   101   51  118 1    
   102   51  119 1    
   103   52   53 2    
   104   52   54 am   BACKBONE|DICT|INTERRES
   105   54   55 1    
   106   54  120 1    
   107   55   56 1    
   108   55   57 1    
   109   55  121 1    
   110   56  122 1    
   111   56  123 1    
   112   56  124 1    
   113   57   58 2    
   114   57   59 am   BACKBONE|DICT|INTERRES
   115   59   60 1    
   116   59  125 1    
   117   60   61 1    
   118   60   62 1    
   119   60  126 1    
   120   61  127 1    
   121   61  128 1    
   122   61  129 1    
   123   62   63 2    
   124   62   64 am   BACKBONE|DICT|INTERRES
   125   64   65 1    
   126   64  130 1    
   127   65   66 1    
   128   65   69 1    
   129   65  131 1    
   130   66   67 am   BACKBONE|DICT|INTERRES
   131   66   68 2    
   132   67  132 1    
   133   67  133 1    
   134   69   70 1    
   135   69  134 1    
   136   69  135 1    
   137   70   71 1    
   138   71  136 1    
   139   71  137 1    
@<TRIPOS>SUBSTRUCTURE
     1 UNK         1 GROUP             0       ****    0 ROOT    
