@<TRIPOS>MOLECULE
3R136
137   139    1
SMALL
USER_CHARGES


@<TRIPOS>ATOM
      1 CA         29.4727   22.2390   -0.0156 C.3       0 UNK        -0.1979 
      2 C          29.3722   23.3999   -0.9933 C.2       0 UNK         0.4864 
      3 O          28.8076   23.2416   -2.0771 O.2       0 UNK        -0.5359 
      4 N          29.9089   24.5699   -0.6210 N.am      1 UNK        -0.4318 
      5 CA         29.8240   25.8212   -1.3805 C.3       1 UNK         0.0824 
      6 C6         30.7394   26.9353   -0.8058 C.3       12 UNK        -0.0944 
      7 S7         30.5932   27.1680    0.9980 S.3       12 UNK        -0.2672 
      8 C8         32.0552   26.2722    1.6028 C.3       12 UNK         0.0333 
      9 C9         31.8098   25.7426    3.0053 C.ar      12 UNK        -0.0807 
     10 C10        32.4601   26.3065    4.1047 C.ar      12 UNK        -0.0894 
     11 C11        32.2365   25.8076    5.3911 C.ar      12 UNK        -0.0804 
     12 C12        31.3251   24.7630    5.5780 C.ar      12 UNK        -0.0824 
     13 C13        30.6544   24.1992    4.4870 C.ar      12 UNK        -0.0762 
     14 C14        30.9249   24.6792    3.2021 C.ar      12 UNK        -0.0782 
     15 C15        29.6478   23.0711    4.7126 C.3       12 UNK         0.0230 
     16 S16        28.1516   23.1682    3.6618 S.3       12 UNK        -0.2608 
     17 C17        27.5215   24.8389    4.0420 C.3       12 UNK        -0.0989 
     18 CA         27.2696   25.6631    2.7466 C.3       5 UNK         0.0716 
     19 N          26.1471   25.1904    1.9250 N.am      5 UNK        -0.4135 
     20 C          24.8633   25.0818    2.3035 C.2       4 UNK         0.5031 
     21 O          24.4652   25.2688    3.4539 O.2       4 UNK        -0.5229 
     22 CA         23.8157   24.7385    1.2272 C.3       4 UNK         0.0329 
     23 CB         22.8548   25.9226    1.0213 C.3       4 UNK        -0.2001 
     24 N          24.3741   24.3732   -0.0738 N.am      4 UNK        -0.4303 
     25 C          24.9303   23.2019   -0.3989 C.2       3 UNK         0.5044 
     26 O          25.0796   22.2746    0.3963 O.2       3 UNK        -0.5152 
     27 CA         25.4105   23.0336   -1.8539 C.3       3 UNK         0.0319 
     28 CB         24.2756   22.5127   -2.7568 C.3       3 UNK        -0.2001 
     29 N          26.0590   24.2242   -2.4286 N.am      3 UNK        -0.4354 
     30 C          25.5318   25.4278   -2.7142 C.2       2 UNK         0.4964 
     31 O          24.3384   25.6957   -2.5665 O.2       2 UNK        -0.5047 
     32 CA         26.4956   26.5303   -3.2063 C.3       2 UNK         0.0288 
     33 CB         26.0088   27.9440   -2.8238 C.3       2 UNK        -0.2113 
     34 N          27.8874   26.3276   -2.7813 N.am      2 UNK        -0.4145 
     35 C          28.3521   26.2620   -1.5238 C.2       1 UNK         0.5006 
     36 O          27.6673   26.4561   -0.5138 O.2       1 UNK        -0.5103 
     37 C          27.1065   27.1720    3.0091 C.2       5 UNK         0.5055 
     38 O          26.8376   27.5891    4.1373 O.2       5 UNK        -0.5220 
     39 N          27.2514   27.9598    1.9344 N.am      6 UNK        -0.4450 
     40 CA         27.1536   29.4238    1.9318 C.3       6 UNK         0.0367 
     41 CB         27.1388   29.9155    0.4755 C.3       6 UNK        -0.1929 
     42 C          28.2557   30.1500    2.7308 C.2       6 UNK         0.5070 
     43 O          28.0765   31.3259    3.0513 O.2       6 UNK        -0.5237 
     44 N          29.3592   29.4502    3.0295 N.am      7 UNK        -0.4739 
     45 CA         30.5702   29.9273    3.7028 C.3       7 UNK         0.0276 
     46 CB         30.2615   30.3973    5.1430 C.3       7 UNK        -0.1927 
     47 C          31.3255   30.9550    2.8365 C.2       7 UNK         0.5013 
     48 O          31.3650   30.7965    1.6138 O.2       7 UNK        -0.5193 
     49 N          31.9540   31.9558    3.4707 N.am      8 UNK        -0.4253 
     50 CA         32.7596   33.0498    2.9021 C.3       8 UNK         0.0242 
     51 CB         31.9439   33.9132    1.9196 C.3       8 UNK        -0.2000 
     52 C          34.0956   32.6024    2.2796 C.2       8 UNK         0.4948 
     53 O          35.1207   33.2267    2.5551 O.2       8 UNK        -0.5275 
     54 N          34.0788   31.5225    1.4863 N.am      9 UNK        -0.4246 
     55 CA         35.2658   30.8368    0.9596 C.3       9 UNK         0.0261 
     56 CB         34.8280   29.8059   -0.0938 C.3       9 UNK        -0.1959 
     57 C          36.0916   30.1586    2.0699 C.2       9 UNK         0.5033 
     58 O          37.3162   30.0790    1.9659 O.2       9 UNK        -0.5390 
     59 N          35.3955   29.7173    3.1198 N.am      10 UNK        -0.4215 
     60 CA         35.9006   29.2441    4.3997 C.3       10 UNK         0.0240 
     61 CB         36.2984   27.7599    4.3051 C.3       10 UNK        -0.1982 
     62 C          34.7709   29.4749    5.4123 C.2       10 UNK         0.4970 
     63 O          33.6222   29.6349    4.9908 O.2       10 UNK        -0.4916 
     64 N          35.1167   29.4857    6.7060 N.am      11 UNK        -0.4279 
     65 CA         34.2307   29.7478    7.8573 C.3       11 UNK         0.1003 
     66 C          33.3762   31.0518    7.7518 C.2       11 UNK         0.5709 
     67 N          32.2330   31.1330    8.4199 N.am      11 UNK        -0.7358 
     68 O          33.7771   32.0253    7.1158 O.2       11 UNK        -0.4999 
     69 C69        33.4815   28.4747    8.3647 C.3       12 UNK        -0.0954 
     70 S70        32.1638   27.8319    7.2746 S.3       12 UNK        -0.2268 
     71 C71        33.0025   26.3826    6.5709 C.3       12 UNK         0.0203 
     72 H72        28.5055   22.0629    0.4552 H         1 UNK         0.0888 
     73 H73        29.7674   21.3304   -0.5398 H         1 UNK         0.0888 
     74 H74        30.2060   22.4262    0.7677 H         1 UNK         0.0888 
     75 H75        30.3356   24.6601    0.2868 H         1 UNK         0.3017 
     76 H76        30.2001   25.5976   -2.3814 H         1 UNK         0.0873 
     77 H77        31.7797   26.7118   -1.0472 H         1 UNK         0.0745 
     78 H78        30.5343   27.8912   -1.2918 H         1 UNK         0.0745 
     79 H79        32.9182   26.9396    1.5782 H         1 UNK         0.0705 
     80 H80        32.2916   25.4357    0.9438 H         1 UNK         0.0705 
     81 H81        33.1437   27.1311    3.9618 H         1 UNK         0.1334 
     82 H82        31.1417   24.3881    6.5759 H         1 UNK         0.1417 
     83 H83        30.4212   24.2407    2.3549 H         1 UNK         0.1562 
     84 H84        29.3276   23.0533    5.7557 H         1 UNK         0.0748 
     85 H85        30.1443   22.1181    4.5262 H         1 UNK         0.0748 
     86 H86        28.2429   25.3539    4.6784 H         1 UNK         0.0940 
     87 H87        26.6215   24.7492    4.6500 H         1 UNK         0.0940 
     88 H88        28.1605   25.5654    2.1243 H         1 UNK         0.0703 
     89 H89        26.3564   25.0696    0.9437 H         1 UNK         0.3081 
     90 H90        23.2385   23.8899    1.6002 H         1 UNK         0.0719 
     91 H91        22.3714   26.2057    1.9574 H         1 UNK         0.0809 
     92 H92        23.3771   26.8030    0.6442 H         1 UNK         0.0809 
     93 H93        22.0634   25.6736    0.3140 H         1 UNK         0.0809 
     94 H94        24.2738   25.0523   -0.8247 H         1 UNK         0.2990 
     95 H95        26.1855   22.2657   -1.8333 H         1 UNK         0.0690 
     96 H96        23.4409   23.2118   -2.8126 H         1 UNK         0.0788 
     97 H97        23.8806   21.5696   -2.3768 H         1 UNK         0.0788 
     98 H98        24.6292   22.3302   -3.7716 H         1 UNK         0.0788 
     99 H99        27.0631   24.1148   -2.5427 H         1 UNK         0.2993 
    100 H100       26.4955   26.4633   -4.2953 H         1 UNK         0.0949 
    101 H101       25.8525   28.0336   -1.7494 H         1 UNK         0.0767 
    102 H102       26.7223   28.7101   -3.1274 H         1 UNK         0.0767 
    103 H103       25.0592   28.1753   -3.3080 H         1 UNK         0.0767 
    104 H104       28.5339   26.1239   -3.5316 H         1 UNK         0.3013 
    105 H105       27.4549   27.5160    1.0402 H         1 UNK         0.3121 
    106 H106       26.2005   29.6920    2.3924 H         1 UNK         0.0774 
    107 H107       27.1080   31.0049    0.4268 H         1 UNK         0.0815 
    108 H108       28.0262   29.5884   -0.0686 H         1 UNK         0.0815 
    109 H109       26.2608   29.5479   -0.0532 H         1 UNK         0.0815 
    110 H110       29.4281   28.5191    2.6405 H         1 UNK         0.2987 
    111 H111       31.2279   29.0600    3.7781 H         1 UNK         0.0949 
    112 H112       29.6835   29.6468    5.6825 H         1 UNK         0.0806 
    113 H113       31.1774   30.5514    5.7127 H         1 UNK         0.0806 
    114 H114       29.6968   31.3298    5.1624 H         1 UNK         0.0806 
    115 H115       31.9150   31.9434    4.4810 H         1 UNK         0.3010 
    116 H116       33.0157   33.6851    3.7518 H         1 UNK         0.0829 
    117 H117       31.0298   34.2841    2.3833 H         1 UNK         0.0813 
    118 H118       32.5196   34.7816    1.5970 H         1 UNK         0.0813 
    119 H119       31.6635   33.3615    1.0219 H         1 UNK         0.0813 
    120 H120       33.1697   31.1004    1.3051 H         1 UNK         0.3038 
    121 H121       35.9027   31.5805    0.4761 H         1 UNK         0.0769 
    122 H122       34.3066   30.2842   -0.9231 H         1 UNK         0.0811 
    123 H123       35.6902   29.2841   -0.5113 H         1 UNK         0.0811 
    124 H124       34.1624   29.0521    0.3294 H         1 UNK         0.0811 
    125 H125       34.3935   29.8689    3.1364 H         1 UNK         0.3204 
    126 H126       36.7635   29.8467    4.6910 H         1 UNK         0.0748 
    127 H127       37.1105   27.6147    3.5924 H         1 UNK         0.0771 
    128 H128       36.6432   27.3822    5.2683 H         1 UNK         0.0771 
    129 H129       35.4645   27.1345    3.9875 H         1 UNK         0.0771 
    130 H130       36.0916   29.3663    6.9383 H         1 UNK         0.2980 
    131 H131       34.9331   29.9970    8.6532 H         1 UNK         0.0545 
    132 H132       31.8831   30.3429    8.9379 H         1 UNK         0.3459 
    133 H133       31.6978   31.9854    8.3772 H         1 UNK         0.3459 
    134 H134       34.2075   27.6812    8.5475 H         1 UNK         0.0616 
    135 H135       33.0359   28.6690    9.3412 H         1 UNK         0.0616 
    136 H136       33.1268   25.6275    7.3485 H         1 UNK         0.0634 
    137 H137       34.0072   26.6620    6.2513 H         1 UNK         0.0634 
@<TRIPOS>BOND
     1    1    2 1    
     2    1   72 1    
     3    1   73 1    
     4    1   74 1    
     5    2    3 2    
     6    2    4 am   BACKBONE|DICT|INTERRES
     7    4    5 1    
     8    4   75 1    
     9    5    6 1    
    10    5   35 1    
    11    5   76 1    
    12    6    7 1    
    13    6   77 1    
    14    6   78 1    
    15    7    8 1    
    16    8    9 1    
    17    8   79 1    
    18    8   80 1    
    19    9   10 ar   
    20    9   14 ar   
    21   10   11 ar   
    22   10   81 1    
    23   11   12 ar   
    24   11   71 1    
    25   12   13 ar   
    26   12   82 1    
    27   13   14 ar   
    28   13   15 1    
    29   14   83 1    
    30   15   16 1    
    31   15   84 1    
    32   15   85 1    
    33   16   17 1    
    34   17   18 1    
    35   17   86 1    
    36   17   87 1    
    37   18   19 1    
    38   18   37 1    
    39   18   88 1    
    40   19   20 am   BACKBONE|DICT|INTERRES
    41   19   89 1    
    42   20   21 2    
    43   20   22 1    
    44   22   23 1    
    45   22   24 1    
    46   22   90 1    
    47   23   91 1    
    48   23   92 1    
    49   23   93 1    
    50   24   25 am   BACKBONE|DICT|INTERRES
    51   24   94 1    
    52   25   26 2    
    53   25   27 1    
    54   27   28 1    
    55   27   29 1    
    56   27   95 1    
    57   28   96 1    
    58   28   97 1    
    59   28   98 1    
    60   29   30 am   BACKBONE|DICT|INTERRES
    61   29   99 1    
    62   30   31 2    
    63   30   32 1    
    64   32   33 1    
    65   32   34 1    
    66   32  100 1    
    67   33  101 1    
    68   33  102 1    
    69   33  103 1    
    70   34   35 am   BACKBONE|DICT|INTERRES
    71   34  104 1    
    72   35   36 2    
    73   37   38 2    
    74   37   39 am   BACKBONE|DICT|INTERRES
    75   39   40 1    
    76   39  105 1    
    77   40   41 1    
    78   40   42 1    
    79   40  106 1    
    80   41  107 1    
    81   41  108 1    
    82   41  109 1    
    83   42   43 2    
    84   42   44 am   BACKBONE|DICT|INTERRES
    85   44   45 1    
    86   44  110 1    
    87   45   46 1    
    88   45   47 1    
    89   45  111 1    
    90   46  112 1    
    91   46  113 1    
    92   46  114 1    
    93   47   48 2    
    94   47   49 am   BACKBONE|DICT|INTERRES
    95   49   50 1    
    96   49  115 1    
    97   50   51 1    
    98   50   52 1    
    99   50  116 1    
   100   51  117 1    
   101   51  118 1    
   102   51  119 1    
   103   52   53 2    
   104   52   54 am   BACKBONE|DICT|INTERRES
   105   54   55 1    
   106   54  120 1    
   107   55   56 1    
   108   55   57 1    
   109   55  121 1    
   110   56  122 1    
   111   56  123 1    
   112   56  124 1    
   113   57   58 2    
   114   57   59 am   BACKBONE|DICT|INTERRES
   115   59   60 1    
   116   59  125 1    
   117   60   61 1    
   118   60   62 1    
   119   60  126 1    
   120   61  127 1    
   121   61  128 1    
   122   61  129 1    
   123   62   63 2    
   124   62   64 am   BACKBONE|DICT|INTERRES
   125   64   65 1    
   126   64  130 1    
   127   65   66 1    
   128   65   69 1    
   129   65  131 1    
   130   66   67 am   BACKBONE|DICT|INTERRES
   131   66   68 2    
   132   67  132 1    
   133   67  133 1    
   134   69   70 1    
   135   69  134 1    
   136   69  135 1    
   137   70   71 1    
   138   71  136 1    
   139   71  137 1    
@<TRIPOS>SUBSTRUCTURE
     1 UNK         1 GROUP             0       ****    0 ROOT    
