@<TRIPOS>MOLECULE
3R136
137   139    1
SMALL
USER_CHARGES


@<TRIPOS>ATOM
      1 CA         28.9764   24.6685   -5.2143 C.3       0 UNK        -0.1979 
      2 C          28.7260   25.2415   -3.8276 C.2       0 UNK         0.4864 
      3 O          27.7007   25.8890   -3.6103 O.2       0 UNK        -0.5359 
      4 N          29.6494   24.9989   -2.8855 N.am      1 UNK        -0.4318 
      5 CA         29.5911   25.4639   -1.4922 C.3       1 UNK         0.0824 
      6 C6         30.8883   25.1356   -0.7093 C.3       12 UNK        -0.0944 
      7 S7         31.2804   23.3510   -0.6720 S.3       12 UNK        -0.2672 
      8 C8         32.4393   23.2601    0.7288 C.3       12 UNK         0.0333 
      9 C9         31.7964   23.4003    2.1085 C.ar      12 UNK        -0.0807 
     10 C10        32.4819   24.1086    3.1006 C.ar      12 UNK        -0.0894 
     11 C11        31.9998   24.1543    4.4111 C.ar      12 UNK        -0.0804 
     12 C12        30.8030   23.5043    4.7230 C.ar      12 UNK        -0.0824 
     13 C13        30.0867   22.8136    3.7394 C.ar      12 UNK        -0.0762 
     14 C14        30.5916   22.7600    2.4340 C.ar      12 UNK        -0.0782 
     15 C15        28.7997   22.0813    4.1116 C.3       12 UNK         0.0230 
     16 S16        27.2843   22.9877    3.6465 S.3       12 UNK        -0.2608 
     17 C17        27.5193   24.5940    4.4800 C.3       12 UNK        -0.0989 
     18 CA         28.0202   25.6409    3.4522 C.3       5 UNK         0.0716 
     19 N          26.9711   26.1866    2.5878 N.am      5 UNK        -0.4135 
     20 C          25.9560   26.9916    2.9321 C.2       4 UNK         0.5031 
     21 O          25.6646   27.2762    4.0940 O.2       4 UNK        -0.5229 
     22 CA         25.1307   27.6147    1.7936 C.3       4 UNK         0.0329 
     23 CB         25.6976   28.9964    1.4230 C.3       4 UNK        -0.2001 
     24 N          25.0820   26.7770    0.5905 N.am      4 UNK        -0.4303 
     25 C          23.9657   26.4872   -0.0947 C.2       3 UNK         0.5044 
     26 O          22.8475   26.9075    0.2062 O.2       3 UNK        -0.5152 
     27 CA         24.1045   25.5786   -1.3340 C.3       3 UNK         0.0319 
     28 CB         24.1714   26.4261   -2.6147 C.3       3 UNK        -0.2001 
     29 N          25.2718   24.6964   -1.2869 N.am      3 UNK        -0.4354 
     30 C          25.4417   23.6994   -0.4062 C.2       2 UNK         0.4964 
     31 O          24.5687   23.3333    0.3810 O.2       2 UNK        -0.5047 
     32 CA         26.8164   23.0042   -0.3694 C.3       2 UNK         0.0288 
     33 CB         26.7247   21.5934   -0.9732 C.3       2 UNK        -0.2113 
     34 N          27.9134   23.7266   -1.0238 N.am      2 UNK        -0.4145 
     35 C          28.3483   24.9622   -0.7316 C.2       1 UNK         0.5006 
     36 O          27.7990   25.7094    0.0774 O.2       1 UNK        -0.5103 
     37 C          28.8590   26.7822    4.0508 C.2       5 UNK         0.5055 
     38 O          28.7855   27.0666    5.2473 O.2       5 UNK        -0.5220 
     39 N          29.6197   27.4278    3.1620 N.am      6 UNK        -0.4450 
     40 CA         30.5629   28.5013    3.4283 C.3       6 UNK         0.0367 
     41 CB         29.8077   29.8338    3.5836 C.3       6 UNK        -0.1929 
     42 C          31.5179   28.5631    2.2347 C.2       6 UNK         0.5070 
     43 O          31.0956   28.2746    1.1112 O.2       6 UNK        -0.5237 
     44 N          32.7583   29.0093    2.4636 N.am      7 UNK        -0.4739 
     45 CA         33.7015   29.3858    1.4094 C.3       7 UNK         0.0276 
     46 CB         35.1415   29.1577    1.9046 C.3       7 UNK        -0.1927 
     47 C          33.4238   30.8474    1.0189 C.2       7 UNK         0.5013 
     48 O          34.2104   31.7410    1.3398 O.2       7 UNK        -0.5193 
     49 N          32.2494   31.0619    0.4095 N.am      8 UNK        -0.4253 
     50 CA         31.6029   32.3359    0.0743 C.3       8 UNK         0.0242 
     51 CB         32.4493   33.1765   -0.9036 C.3       8 UNK        -0.2000 
     52 C          31.1791   33.1483    1.3118 C.2       8 UNK         0.4948 
     53 O          29.9870   33.4060    1.4792 O.2       8 UNK        -0.5275 
     54 N          32.1501   33.5403    2.1453 N.am      9 UNK        -0.4246 
     55 CA         31.9420   34.3491    3.3474 C.3       9 UNK         0.0261 
     56 CB         33.2248   35.1362    3.6663 C.3       9 UNK        -0.1959 
     57 C          31.5033   33.5016    4.5514 C.2       9 UNK         0.5033 
     58 O          30.4891   33.8136    5.1766 O.2       9 UNK        -0.5390 
     59 N          32.2784   32.4553    4.8569 N.am      10 UNK        -0.4215 
     60 CA         32.1150   31.5452    5.9908 C.3       10 UNK         0.0240 
     61 CB         32.4511   32.2696    7.3118 C.3       10 UNK        -0.1982 
     62 C          33.0472   30.3463    5.7724 C.2       10 UNK         0.4970 
     63 O          33.8330   30.3588    4.8229 O.2       10 UNK        -0.4916 
     64 N          32.9580   29.3348    6.6424 N.am      11 UNK        -0.4279 
     65 CA         33.8988   28.1984    6.6760 C.3       11 UNK         0.1003 
     66 C          35.2657   28.5231    7.3497 C.2       11 UNK         0.5709 
     67 N          35.4389   29.6683    7.9999 N.am      11 UNK        -0.7358 
     68 O          36.1938   27.7219    7.2693 O.2       11 UNK        -0.4999 
     69 C69        33.2523   26.9351    7.3017 C.3       12 UNK        -0.0954 
     70 S70        31.9398   26.2523    6.2399 S.3       12 UNK        -0.2268 
     71 C71        32.8131   24.8396    5.5014 C.3       12 UNK         0.0203 
     72 H72        28.1672   23.9940   -5.4929 H         1 UNK         0.0888 
     73 H73        29.0189   25.4718   -5.9492 H         1 UNK         0.0888 
     74 H74        29.9131   24.1135   -5.2637 H         1 UNK         0.0888 
     75 H75        30.4654   24.4507   -3.1205 H         1 UNK         0.3017 
     76 H76        29.5030   26.5520   -1.5321 H         1 UNK         0.0873 
     77 H77        30.8223   25.5134    0.3135 H         1 UNK         0.0745 
     78 H78        31.7322   25.6599   -1.1603 H         1 UNK         0.0745 
     79 H79        33.2127   24.0161    0.5834 H         1 UNK         0.0705 
     80 H80        32.9457   22.2949    0.6898 H         1 UNK         0.0705 
     81 H81        33.4222   24.5875    2.8626 H         1 UNK         0.1334 
     82 H82        30.4387   23.5274    5.7412 H         1 UNK         0.1417 
     83 H83        30.0588   22.1970    1.6797 H         1 UNK         0.1562 
     84 H84        28.7737   21.8795    5.1836 H         1 UNK         0.0748 
     85 H85        28.7853   21.1055    3.6239 H         1 UNK         0.0748 
     86 H86        28.2226   24.4660    5.3036 H         1 UNK         0.0940 
     87 H87        26.5817   24.9059    4.9414 H         1 UNK         0.0940 
     88 H88        28.7072   25.1281    2.7762 H         1 UNK         0.0703 
     89 H89        27.1541   26.0350    1.5972 H         1 UNK         0.3081 
     90 H90        24.1227   27.7558    2.1895 H         1 UNK         0.0719 
     91 H91        25.7487   29.6468    2.2975 H         1 UNK         0.0809 
     92 H92        26.7052   28.9215    1.0118 H         1 UNK         0.0809 
     93 H93        25.0702   29.4958    0.6846 H         1 UNK         0.0809 
     94 H94        25.9598   26.3887    0.2619 H         1 UNK         0.2990 
     95 H95        23.2112   24.9524   -1.3833 H         1 UNK         0.0690 
     96 H96        25.0617   27.0566   -2.6344 H         1 UNK         0.0788 
     97 H97        23.3036   27.0821   -2.6961 H         1 UNK         0.0788 
     98 H98        24.1869   25.7983   -3.5059 H         1 UNK         0.0788 
     99 H99        26.0391   24.9277   -1.9046 H         1 UNK         0.2993 
    100 H100       27.0860   22.9066    0.6834 H         1 UNK         0.0949 
    101 H101       26.4924   21.6260   -2.0384 H         1 UNK         0.0767 
    102 H102       27.6594   21.0462   -0.8478 H         1 UNK         0.0767 
    103 H103       25.9431   21.0083   -0.4860 H         1 UNK         0.0767 
    104 H104       28.4387   23.2076   -1.7126 H         1 UNK         0.3013 
    105 H105       29.6177   27.1365    2.1913 H         1 UNK         0.3121 
    106 H106       31.1302   28.2809    4.3332 H         1 UNK         0.0774 
    107 H107       30.4964   30.6755    3.6404 H         1 UNK         0.0815 
    108 H108       29.1460   30.0208    2.7367 H         1 UNK         0.0815 
    109 H109       29.2015   29.8440    4.4895 H         1 UNK         0.0815 
    110 H110       33.0324   29.2862    3.4014 H         1 UNK         0.2987 
    111 H111       33.5499   28.7619    0.5253 H         1 UNK         0.0949 
    112 H112       35.8627   29.4072    1.1255 H         1 UNK         0.0806 
    113 H113       35.3792   29.7718    2.7736 H         1 UNK         0.0806 
    114 H114       35.3054   28.1153    2.1777 H         1 UNK         0.0806 
    115 H115       31.6732   30.2409    0.2584 H         1 UNK         0.3010 
    116 H116       30.6838   32.0665   -0.4490 H         1 UNK         0.0829 
    117 H117       32.6725   32.6177   -1.8125 H         1 UNK         0.0813 
    118 H118       31.9132   34.0783   -1.2022 H         1 UNK         0.0813 
    119 H119       33.3963   33.4951   -0.4677 H         1 UNK         0.0813 
    120 H120       33.0929   33.2171    1.9448 H         1 UNK         0.3038 
    121 H121       31.1505   35.0752    3.1481 H         1 UNK         0.0769 
    122 H122       33.4817   35.8162    2.8539 H         1 UNK         0.0811 
    123 H123       33.0980   35.7411    4.5653 H         1 UNK         0.0811 
    124 H124       34.0789   34.4785    3.8328 H         1 UNK         0.0811 
    125 H125       33.0777   32.2321    4.2743 H         1 UNK         0.3204 
    126 H126       31.0848   31.1853    6.0166 H         1 UNK         0.0748 
    127 H127       31.7904   33.1197    7.4823 H         1 UNK         0.0771 
    128 H128       32.3371   31.6086    8.1715 H         1 UNK         0.0771 
    129 H129       33.4764   32.6420    7.3159 H         1 UNK         0.0771 
    130 H130       32.2814   29.3745    7.3905 H         1 UNK         0.2980 
    131 H131       34.1531   27.9461    5.6443 H         1 UNK         0.0545 
    132 H132       36.3327   29.8614    8.4236 H         1 UNK         0.3459 
    133 H133       34.6900   30.3358    8.0772 H         1 UNK         0.3459 
    134 H134       33.9946   26.1541    7.4776 H         1 UNK         0.0616 
    135 H135       32.8259   27.1671    8.2790 H         1 UNK         0.0616 
    136 H136       33.0453   24.1145    6.2827 H         1 UNK         0.0634 
    137 H137       33.7691   25.1861    5.1054 H         1 UNK         0.0634 
@<TRIPOS>BOND
     1    1    2 1    
     2    1   72 1    
     3    1   73 1    
     4    1   74 1    
     5    2    3 2    
     6    2    4 am   BACKBONE|DICT|INTERRES
     7    4    5 1    
     8    4   75 1    
     9    5    6 1    
    10    5   35 1    
    11    5   76 1    
    12    6    7 1    
    13    6   77 1    
    14    6   78 1    
    15    7    8 1    
    16    8    9 1    
    17    8   79 1    
    18    8   80 1    
    19    9   10 ar   
    20    9   14 ar   
    21   10   11 ar   
    22   10   81 1    
    23   11   12 ar   
    24   11   71 1    
    25   12   13 ar   
    26   12   82 1    
    27   13   14 ar   
    28   13   15 1    
    29   14   83 1    
    30   15   16 1    
    31   15   84 1    
    32   15   85 1    
    33   16   17 1    
    34   17   18 1    
    35   17   86 1    
    36   17   87 1    
    37   18   19 1    
    38   18   37 1    
    39   18   88 1    
    40   19   20 am   BACKBONE|DICT|INTERRES
    41   19   89 1    
    42   20   21 2    
    43   20   22 1    
    44   22   23 1    
    45   22   24 1    
    46   22   90 1    
    47   23   91 1    
    48   23   92 1    
    49   23   93 1    
    50   24   25 am   BACKBONE|DICT|INTERRES
    51   24   94 1    
    52   25   26 2    
    53   25   27 1    
    54   27   28 1    
    55   27   29 1    
    56   27   95 1    
    57   28   96 1    
    58   28   97 1    
    59   28   98 1    
    60   29   30 am   BACKBONE|DICT|INTERRES
    61   29   99 1    
    62   30   31 2    
    63   30   32 1    
    64   32   33 1    
    65   32   34 1    
    66   32  100 1    
    67   33  101 1    
    68   33  102 1    
    69   33  103 1    
    70   34   35 am   BACKBONE|DICT|INTERRES
    71   34  104 1    
    72   35   36 2    
    73   37   38 2    
    74   37   39 am   BACKBONE|DICT|INTERRES
    75   39   40 1    
    76   39  105 1    
    77   40   41 1    
    78   40   42 1    
    79   40  106 1    
    80   41  107 1    
    81   41  108 1    
    82   41  109 1    
    83   42   43 2    
    84   42   44 am   BACKBONE|DICT|INTERRES
    85   44   45 1    
    86   44  110 1    
    87   45   46 1    
    88   45   47 1    
    89   45  111 1    
    90   46  112 1    
    91   46  113 1    
    92   46  114 1    
    93   47   48 2    
    94   47   49 am   BACKBONE|DICT|INTERRES
    95   49   50 1    
    96   49  115 1    
    97   50   51 1    
    98   50   52 1    
    99   50  116 1    
   100   51  117 1    
   101   51  118 1    
   102   51  119 1    
   103   52   53 2    
   104   52   54 am   BACKBONE|DICT|INTERRES
   105   54   55 1    
   106   54  120 1    
   107   55   56 1    
   108   55   57 1    
   109   55  121 1    
   110   56  122 1    
   111   56  123 1    
   112   56  124 1    
   113   57   58 2    
   114   57   59 am   BACKBONE|DICT|INTERRES
   115   59   60 1    
   116   59  125 1    
   117   60   61 1    
   118   60   62 1    
   119   60  126 1    
   120   61  127 1    
   121   61  128 1    
   122   61  129 1    
   123   62   63 2    
   124   62   64 am   BACKBONE|DICT|INTERRES
   125   64   65 1    
   126   64  130 1    
   127   65   66 1    
   128   65   69 1    
   129   65  131 1    
   130   66   67 am   BACKBONE|DICT|INTERRES
   131   66   68 2    
   132   67  132 1    
   133   67  133 1    
   134   69   70 1    
   135   69  134 1    
   136   69  135 1    
   137   70   71 1    
   138   71  136 1    
   139   71  137 1    
@<TRIPOS>SUBSTRUCTURE
     1 UNK         1 GROUP             0       ****    0 ROOT    
