@<TRIPOS>MOLECULE
3R136
137   139    1
SMALL
USER_CHARGES


@<TRIPOS>ATOM
      1 CA         30.6899   27.0753   -0.4299 C.3       0 UNK        -0.1979 
      2 C          30.2099   25.6729   -0.7694 C.2       0 UNK         0.4864 
      3 O          29.9113   25.3931   -1.9320 O.2       0 UNK        -0.5359 
      4 N          30.1205   24.8021    0.2439 N.am      1 UNK        -0.4318 
      5 CA         29.7151   23.3936    0.1789 C.3       1 UNK         0.0824 
      6 C6         30.7687   22.4629   -0.4925 C.3       12 UNK        -0.0944 
      7 S7         32.4432   22.5801    0.2211 S.3       12 UNK        -0.2672 
      8 C8         32.3239   21.5013    1.6861 C.3       12 UNK         0.0333 
      9 C9         31.6253   22.2014    2.8432 C.ar      12 UNK        -0.0807 
     10 C10        32.1741   23.3689    3.3804 C.ar      12 UNK        -0.0894 
     11 C11        31.5286   24.0489    4.4147 C.ar      12 UNK        -0.0804 
     12 C12        30.3395   23.5352    4.9383 C.ar      12 UNK        -0.0824 
     13 C13        29.7742   22.3709    4.4063 C.ar      12 UNK        -0.0762 
     14 C14        30.4276   21.7019    3.3654 C.ar      12 UNK        -0.0782 
     15 C15        28.4549   21.8363    4.9466 C.3       12 UNK         0.0230 
     16 S16        27.0210   22.6283    4.1428 S.3       12 UNK        -0.2608 
     17 C17        26.9248   24.2169    5.0352 C.3       12 UNK        -0.0989 
     18 CA         27.4680   25.3971    4.1922 C.3       5 UNK         0.0716 
     19 N          26.5865   25.7299    3.0645 N.am      5 UNK        -0.4135 
     20 C          26.9895   26.4045    1.9809 C.2       4 UNK         0.5031 
     21 O          28.1606   26.7192    1.7626 O.2       4 UNK        -0.5229 
     22 CA         25.8987   26.8809    1.0179 C.3       4 UNK         0.0329 
     23 CB         25.5595   28.3576    1.3165 C.3       4 UNK        -0.2001 
     24 N          26.3894   26.7088   -0.3465 N.am      4 UNK        -0.4303 
     25 C          25.7052   26.9236   -1.4773 C.2       3 UNK         0.5044 
     26 O          24.5554   27.3621   -1.5222 O.2       3 UNK        -0.5152 
     27 CA         26.4162   26.5407   -2.7861 C.3       3 UNK         0.0319 
     28 CB         27.5006   27.5660   -3.1539 C.3       3 UNK        -0.2001 
     29 N          26.9945   25.1965   -2.7081 N.am      3 UNK        -0.4354 
     30 C          26.2586   24.0723   -2.7093 C.2       2 UNK         0.4964 
     31 O          25.0393   24.0554   -2.8828 O.2       2 UNK        -0.5047 
     32 CA         26.9858   22.7362   -2.4748 C.3       2 UNK         0.0288 
     33 CB         27.2946   22.0474   -3.8141 C.3       2 UNK        -0.2113 
     34 N          28.2239   22.8680   -1.7068 N.am      2 UNK        -0.4145 
     35 C          28.3020   23.2424   -0.4214 C.2       1 UNK         0.5006 
     36 O          27.3183   23.4835    0.2792 O.2       1 UNK        -0.5103 
     37 C          27.7380   26.6241    5.0917 C.2       5 UNK         0.5055 
     38 O          28.7294   26.6289    5.8207 O.2       5 UNK        -0.5220 
     39 N          26.8636   27.6374    5.0250 N.am      6 UNK        -0.4450 
     40 CA         26.9858   28.9209    5.7174 C.3       6 UNK         0.0367 
     41 CB         25.6564   29.2308    6.4320 C.3       6 UNK        -0.1929 
     42 C          27.3968   30.0300    4.7302 C.2       6 UNK         0.5070 
     43 O          26.8948   31.1517    4.8222 O.2       6 UNK        -0.5237 
     44 N          28.2833   29.6949    3.7823 N.am      7 UNK        -0.4739 
     45 CA         28.8564   30.6239    2.8058 C.3       7 UNK         0.0276 
     46 CB         29.6138   29.8203    1.7372 C.3       7 UNK        -0.1927 
     47 C          29.7737   31.6740    3.4605 C.2       7 UNK         0.5013 
     48 O          30.3404   31.4230    4.5276 O.2       7 UNK        -0.5193 
     49 N          29.8980   32.8303    2.7965 N.am      8 UNK        -0.4253 
     50 CA         30.6925   33.9796    3.2374 C.3       8 UNK         0.0242 
     51 CB         30.3932   35.1704    2.3108 C.3       8 UNK        -0.2000 
     52 C          32.2043   33.6953    3.2689 C.2       8 UNK         0.4948 
     53 O          32.6832   32.8160    2.5472 O.2       8 UNK        -0.5275 
     54 N          32.9242   34.4804    4.0840 N.am      9 UNK        -0.4246 
     55 CA         34.3692   34.4025    4.3306 C.3       9 UNK         0.0261 
     56 CB         35.1615   34.8290    3.0722 C.3       9 UNK        -0.1959 
     57 C          34.7652   33.0245    4.8976 C.2       9 UNK         0.5033 
     58 O          34.0712   32.5164    5.7815 O.2       9 UNK        -0.5390 
     59 N          35.8452   32.4247    4.3834 N.am      10 UNK        -0.4215 
     60 CA         36.3180   31.0856    4.7437 C.3       10 UNK         0.0240 
     61 CB         37.8366   31.0111    4.4916 C.3       10 UNK        -0.1982 
     62 C          35.5335   29.9823    4.0022 C.2       10 UNK         0.4970 
     63 O          36.1461   29.1180    3.3728 O.2       10 UNK        -0.4916 
     64 N          34.1968   30.0369    4.0859 N.am      11 UNK        -0.4279 
     65 CA         33.2487   29.1235    3.4302 C.3       11 UNK         0.1003 
     66 C          33.3430   29.1760    1.8748 C.2       11 UNK         0.5709 
     67 N          33.2614   30.3588    1.2788 N.am      11 UNK        -0.7358 
     68 O          33.5017   28.1621    1.1994 O.2       11 UNK        -0.4999 
     69 C69        33.3209   27.6917    4.0353 C.3       12 UNK        -0.0954 
     70 S70        31.7901   26.7283    3.8099 S.3       12 UNK        -0.2268 
     71 C71        32.1197   25.3438    4.9464 C.3       12 UNK         0.0203 
     72 H72        29.9323   27.8114   -0.6929 H         1 UNK         0.0888 
     73 H73        30.9041   27.1799    0.6338 H         1 UNK         0.0888 
     74 H74        31.6008   27.3062   -0.9813 H         1 UNK         0.0888 
     75 H75        30.3224   25.1354    1.1768 H         1 UNK         0.3017 
     76 H76        29.6077   23.0820    1.2155 H         1 UNK         0.0873 
     77 H77        30.4447   21.4214   -0.4467 H         1 UNK         0.0745 
     78 H78        30.8758   22.7037   -1.5513 H         1 UNK         0.0745 
     79 H79        31.8206   20.5707    1.4195 H         1 UNK         0.0705 
     80 H80        33.3315   21.2262    2.0008 H         1 UNK         0.0705 
     81 H81        33.0929   23.7669    2.9708 H         1 UNK         0.1334 
     82 H82        29.8421   24.0594    5.7424 H         1 UNK         0.1417 
     83 H83        29.9919   20.8035    2.9492 H         1 UNK         0.1562 
     84 H84        28.4036   21.9681    6.0284 H         1 UNK         0.0748 
     85 H85        28.3948   20.7603    4.7760 H         1 UNK         0.0748 
     86 H86        27.4671   24.1216    5.9777 H         1 UNK         0.0940 
     87 H87        25.8853   24.3937    5.3173 H         1 UNK         0.0940 
     88 H88        28.4358   25.1054    3.7797 H         1 UNK         0.0703 
     89 H89        25.6161   25.4655    3.1549 H         1 UNK         0.3081 
     90 H90        25.0073   26.2632    1.1439 H         1 UNK         0.0719 
     91 H91        26.4140   29.0101    1.1331 H         1 UNK         0.0809 
     92 H92        24.7299   28.7168    0.7086 H         1 UNK         0.0809 
     93 H93        25.2661   28.4931    2.3578 H         1 UNK         0.0809 
     94 H94        27.3267   26.3329   -0.4011 H         1 UNK         0.2990 
     95 H95        25.6715   26.5460   -3.5852 H         1 UNK         0.0690 
     96 H96        27.9722   27.3190   -4.1051 H         1 UNK         0.0788 
     97 H97        28.2833   27.6216   -2.3987 H         1 UNK         0.0788 
     98 H98        27.0730   28.5646   -3.2532 H         1 UNK         0.0788 
     99 H99        27.9976   25.1325   -2.5578 H         1 UNK         0.2993 
    100 H100       26.3085   22.0952   -1.9060 H         1 UNK         0.0949 
    101 H101       26.3848   21.9075   -4.3999 H         1 UNK         0.0767 
    102 H102       27.9856   22.6348   -4.4204 H         1 UNK         0.0767 
    103 H103       27.7341   21.0612   -3.6619 H         1 UNK         0.0767 
    104 H104       29.0856   22.7420   -2.2179 H         1 UNK         0.3013 
    105 H105       26.0853   27.5518    4.3887 H         1 UNK         0.3121 
    106 H106       27.7694   28.8705    6.4764 H         1 UNK         0.0774 
    107 H107       25.3851   28.4352    7.1260 H         1 UNK         0.0815 
    108 H108       25.7287   30.1516    7.0124 H         1 UNK         0.0815 
    109 H109       24.8359   29.3540    5.7241 H         1 UNK         0.0815 
    110 H110       28.6568   28.7564    3.7846 H         1 UNK         0.2987 
    111 H111       28.0309   31.1513    2.3223 H         1 UNK         0.0949 
    112 H112       30.3452   29.1476    2.1837 H         1 UNK         0.0806 
    113 H113       28.9284   29.2164    1.1435 H         1 UNK         0.0806 
    114 H114       30.1474   30.4737    1.0455 H         1 UNK         0.0806 
    115 H115       29.4303   32.9291    1.9075 H         1 UNK         0.3010 
    116 H116       30.3713   34.2321    4.2504 H         1 UNK         0.0829 
    117 H117       29.3322   35.4216    2.3147 H         1 UNK         0.0813 
    118 H118       30.9345   36.0631    2.6273 H         1 UNK         0.0813 
    119 H119       30.6864   34.9620    1.2808 H         1 UNK         0.0813 
    120 H120       32.4289   35.1569    4.6483 H         1 UNK         0.3038 
    121 H121       34.5862   35.1254    5.1184 H         1 UNK         0.0769 
    122 H122       35.0442   34.1208    2.2507 H         1 UNK         0.0811 
    123 H123       36.2270   34.9242    3.2847 H         1 UNK         0.0811 
    124 H124       34.8263   35.8022    2.7132 H         1 UNK         0.0811 
    125 H125       36.3342   32.8881    3.6310 H         1 UNK         0.3204 
    126 H126       36.1554   30.9269    5.8120 H         1 UNK         0.0748 
    127 H127       38.3705   31.7751    5.0570 H         1 UNK         0.0771 
    128 H128       38.2381   30.0449    4.8005 H         1 UNK         0.0771 
    129 H129       38.0787   31.1434    3.4362 H         1 UNK         0.0771 
    130 H130       33.7881   30.8032    4.6093 H         1 UNK         0.2980 
    131 H131       32.2652   29.5254    3.6749 H         1 UNK         0.0545 
    132 H132       33.1104   31.2137    1.8130 H         1 UNK         0.3459 
    133 H133       33.3336   30.4059    0.2761 H         1 UNK         0.3459 
    134 H134       34.1623   27.1318    3.6233 H         1 UNK         0.0616 
    135 H135       33.4998   27.7582    5.1098 H         1 UNK         0.0616 
    136 H136       31.7123   25.5856    5.9293 H         1 UNK         0.0634 
    137 H137       33.1949   25.2142    5.0789 H         1 UNK         0.0634 
@<TRIPOS>BOND
     1    1    2 1    
     2    1   72 1    
     3    1   73 1    
     4    1   74 1    
     5    2    3 2    
     6    2    4 am   BACKBONE|DICT|INTERRES
     7    4    5 1    
     8    4   75 1    
     9    5    6 1    
    10    5   35 1    
    11    5   76 1    
    12    6    7 1    
    13    6   77 1    
    14    6   78 1    
    15    7    8 1    
    16    8    9 1    
    17    8   79 1    
    18    8   80 1    
    19    9   10 ar   
    20    9   14 ar   
    21   10   11 ar   
    22   10   81 1    
    23   11   12 ar   
    24   11   71 1    
    25   12   13 ar   
    26   12   82 1    
    27   13   14 ar   
    28   13   15 1    
    29   14   83 1    
    30   15   16 1    
    31   15   84 1    
    32   15   85 1    
    33   16   17 1    
    34   17   18 1    
    35   17   86 1    
    36   17   87 1    
    37   18   19 1    
    38   18   37 1    
    39   18   88 1    
    40   19   20 am   BACKBONE|DICT|INTERRES
    41   19   89 1    
    42   20   21 2    
    43   20   22 1    
    44   22   23 1    
    45   22   24 1    
    46   22   90 1    
    47   23   91 1    
    48   23   92 1    
    49   23   93 1    
    50   24   25 am   BACKBONE|DICT|INTERRES
    51   24   94 1    
    52   25   26 2    
    53   25   27 1    
    54   27   28 1    
    55   27   29 1    
    56   27   95 1    
    57   28   96 1    
    58   28   97 1    
    59   28   98 1    
    60   29   30 am   BACKBONE|DICT|INTERRES
    61   29   99 1    
    62   30   31 2    
    63   30   32 1    
    64   32   33 1    
    65   32   34 1    
    66   32  100 1    
    67   33  101 1    
    68   33  102 1    
    69   33  103 1    
    70   34   35 am   BACKBONE|DICT|INTERRES
    71   34  104 1    
    72   35   36 2    
    73   37   38 2    
    74   37   39 am   BACKBONE|DICT|INTERRES
    75   39   40 1    
    76   39  105 1    
    77   40   41 1    
    78   40   42 1    
    79   40  106 1    
    80   41  107 1    
    81   41  108 1    
    82   41  109 1    
    83   42   43 2    
    84   42   44 am   BACKBONE|DICT|INTERRES
    85   44   45 1    
    86   44  110 1    
    87   45   46 1    
    88   45   47 1    
    89   45  111 1    
    90   46  112 1    
    91   46  113 1    
    92   46  114 1    
    93   47   48 2    
    94   47   49 am   BACKBONE|DICT|INTERRES
    95   49   50 1    
    96   49  115 1    
    97   50   51 1    
    98   50   52 1    
    99   50  116 1    
   100   51  117 1    
   101   51  118 1    
   102   51  119 1    
   103   52   53 2    
   104   52   54 am   BACKBONE|DICT|INTERRES
   105   54   55 1    
   106   54  120 1    
   107   55   56 1    
   108   55   57 1    
   109   55  121 1    
   110   56  122 1    
   111   56  123 1    
   112   56  124 1    
   113   57   58 2    
   114   57   59 am   BACKBONE|DICT|INTERRES
   115   59   60 1    
   116   59  125 1    
   117   60   61 1    
   118   60   62 1    
   119   60  126 1    
   120   61  127 1    
   121   61  128 1    
   122   61  129 1    
   123   62   63 2    
   124   62   64 am   BACKBONE|DICT|INTERRES
   125   64   65 1    
   126   64  130 1    
   127   65   66 1    
   128   65   69 1    
   129   65  131 1    
   130   66   67 am   BACKBONE|DICT|INTERRES
   131   66   68 2    
   132   67  132 1    
   133   67  133 1    
   134   69   70 1    
   135   69  134 1    
   136   69  135 1    
   137   70   71 1    
   138   71  136 1    
   139   71  137 1    
@<TRIPOS>SUBSTRUCTURE
     1 UNK         1 GROUP             0       ****    0 ROOT    
