@<TRIPOS>MOLECULE
3R136
137   139    1
SMALL
USER_CHARGES


@<TRIPOS>ATOM
      1 CA         27.6154   23.5422    2.9325 C.3       0 UNK        -0.1979 
      2 C          27.8291   22.6155    1.7503 C.2       0 UNK         0.4864 
      3 O          26.8569   22.1042    1.1944 O.2       0 UNK        -0.5359 
      4 N          29.0918   22.4047    1.3519 N.am      1 UNK        -0.4318 
      5 CA         29.4552   21.6201    0.1619 C.3       1 UNK         0.0824 
      6 C6         30.9156   21.0930    0.1887 C.3       12 UNK        -0.0944 
      7 S7         31.4087   20.3534    1.7876 S.3       12 UNK        -0.2672 
      8 C8         32.7171   21.4910    2.3584 C.3       12 UNK         0.0333 
      9 C9         32.1650   22.8594    2.7349 C.ar      12 UNK        -0.0807 
     10 C10        32.1010   23.8751    1.7770 C.ar      12 UNK        -0.0894 
     11 C11        31.5457   25.1154    2.0918 C.ar      12 UNK        -0.0804 
     12 C12        31.1133   25.3602    3.3967 C.ar      12 UNK        -0.0824 
     13 C13        31.2009   24.3674    4.3782 C.ar      12 UNK        -0.0762 
     14 C14        31.7156   23.1118    4.0360 C.ar      12 UNK        -0.0782 
     15 C15        30.7478   24.6527    5.8043 C.3       12 UNK         0.0230 
     16 S16        28.9383   24.5237    5.9737 S.3       12 UNK        -0.2608 
     17 C17        28.4986   26.1492    6.6738 C.3       12 UNK        -0.0989 
     18 CA         28.5101   27.2745    5.6065 C.3       5 UNK         0.0716 
     19 N          27.4335   27.0927    4.6259 N.am      5 UNK        -0.4135 
     20 C          27.5274   27.3323    3.3126 C.2       4 UNK         0.5031 
     21 O          28.5824   27.5456    2.7136 O.2       4 UNK        -0.5229 
     22 CA         26.2000   27.3588    2.5425 C.3       4 UNK         0.0329 
     23 CB         25.3654   28.5922    2.9528 C.3       4 UNK        -0.2001 
     24 N          26.4660   27.3853    1.1034 N.am      4 UNK        -0.4303 
     25 C          25.5564   27.1776    0.1428 C.2       3 UNK         0.5044 
     26 O          24.3825   26.8777    0.3665 O.2       3 UNK        -0.5152 
     27 CA         26.0181   27.3374   -1.3179 C.3       3 UNK         0.0319 
     28 CB         26.1537   28.8222   -1.6898 C.3       3 UNK        -0.2001 
     29 N          27.2602   26.6247   -1.6357 N.am      3 UNK        -0.4354 
     30 C          27.3689   25.2872   -1.6637 C.2       2 UNK         0.4964 
     31 O          26.4391   24.5289   -1.3857 O.2       2 UNK        -0.5047 
     32 CA         28.7152   24.6720   -2.0883 C.3       2 UNK         0.0288 
     33 CB         29.8313   25.7018   -2.3530 C.3       2 UNK        -0.2113 
     34 N          29.1402   23.7443   -1.0414 N.am      2 UNK        -0.4145 
     35 C          29.1799   22.4065   -1.1415 C.2       1 UNK         0.5006 
     36 O          29.0047   21.7888   -2.1936 O.2       1 UNK        -0.5103 
     37 C          28.3582   28.6751    6.2491 C.2       5 UNK         0.5055 
     38 O          27.2563   29.2263    6.2085 O.2       5 UNK        -0.5220 
     39 N          29.3861   29.2750    6.8731 N.am      6 UNK        -0.4450 
     40 CA         30.7659   28.8230    7.0986 C.3       6 UNK         0.0367 
     41 CB         31.4437   29.8284    8.0461 C.3       6 UNK        -0.1929 
     42 C          31.6030   28.6787    5.8180 C.2       6 UNK         0.5070 
     43 O          31.2354   29.2145    4.7726 O.2       6 UNK        -0.5237 
     44 N          32.7296   27.9640    5.9339 N.am      7 UNK        -0.4739 
     45 CA         33.6942   27.7106    4.8592 C.3       7 UNK         0.0276 
     46 CB         34.5599   26.4958    5.2405 C.3       7 UNK        -0.1927 
     47 C          34.5311   28.9626    4.5220 C.2       7 UNK         0.5013 
     48 O          35.7440   28.9801    4.7419 O.2       7 UNK        -0.5193 
     49 N          33.8508   29.9986    4.0268 N.am      8 UNK        -0.4253 
     50 CA         34.3863   31.3033    3.6551 C.3       8 UNK         0.0242 
     51 CB         34.5187   32.1945    4.9101 C.3       8 UNK        -0.2000 
     52 C          33.4920   31.8896    2.5507 C.2       8 UNK         0.4948 
     53 O          33.0698   31.1479    1.6629 O.2       8 UNK        -0.5275 
     54 N          33.1912   33.1951    2.6170 N.am      9 UNK        -0.4246 
     55 CA         32.3774   33.9316    1.6386 C.3       9 UNK         0.0261 
     56 CB         32.3229   35.4151    2.0377 C.3       9 UNK        -0.1959 
     57 C          30.9532   33.3783    1.4346 C.2       9 UNK         0.5033 
     58 O          30.4035   33.5208    0.3408 O.2       9 UNK        -0.5390 
     59 N          30.3976   32.7248    2.4660 N.am      10 UNK        -0.4215 
     60 CA         29.1004   32.0431    2.4319 C.3       10 UNK         0.0240 
     61 CB         28.7045   31.6182    3.8545 C.3       10 UNK        -0.1982 
     62 C          29.0336   30.8482    1.4597 C.2       10 UNK         0.4970 
     63 O          27.9252   30.4608    1.0901 O.2       10 UNK        -0.4916 
     64 N          30.1871   30.3154    1.0264 N.am      11 UNK        -0.4279 
     65 CA         30.2745   29.3177   -0.0505 C.3       11 UNK         0.1003 
     66 C          29.8362   29.8430   -1.4482 C.2       11 UNK         0.5709 
     67 N          29.7942   31.1486   -1.6931 N.am      11 UNK        -0.7358 
     68 O          29.5078   29.0410   -2.3190 O.2       11 UNK        -0.4999 
     69 C69        31.6805   28.6680   -0.1408 C.3       12 UNK        -0.0954 
     70 S70        32.1429   27.7469    1.3604 S.3       12 UNK        -0.2268 
     71 C71        31.3470   26.1550    0.9997 C.3       12 UNK         0.0203 
     72 H72        28.4594   24.2175    3.0662 H         1 UNK         0.0888 
     73 H73        26.7231   24.1484    2.7816 H         1 UNK         0.0888 
     74 H74        27.4838   22.9612    3.8445 H         1 UNK         0.0888 
     75 H75        29.8644   22.7875    1.8820 H         1 UNK         0.3017 
     76 H76        28.8034   20.7437    0.1400 H         1 UNK         0.0873 
     77 H77        31.0324   20.3204   -0.5736 H         1 UNK         0.0745 
     78 H78        31.6240   21.8704   -0.0921 H         1 UNK         0.0745 
     79 H79        33.2159   21.0459    3.2206 H         1 UNK         0.0705 
     80 H80        33.4810   21.5864    1.5850 H         1 UNK         0.0705 
     81 H81        32.4592   23.6944    0.7737 H         1 UNK         0.1334 
     82 H82        30.7034   26.3297    3.6320 H         1 UNK         0.1417 
     83 H83        31.7700   22.3308    4.7826 H         1 UNK         0.1562 
     84 H84        31.0912   25.6429    6.1010 H         1 UNK         0.0748 
     85 H85        31.2156   23.9541    6.4996 H         1 UNK         0.0748 
     86 H86        29.1748   26.3525    7.5027 H         1 UNK         0.0940 
     87 H87        27.5082   26.0672    7.1258 H         1 UNK         0.0940 
     88 H88        29.4588   27.2505    5.0835 H         1 UNK         0.0703 
     89 H89        26.5132   26.9775    5.0241 H         1 UNK         0.3081 
     90 H90        25.6494   26.4466    2.7804 H         1 UNK         0.0719 
     91 H91        25.8793   29.5209    2.7011 H         1 UNK         0.0809 
     92 H92        24.3938   28.6062    2.4595 H         1 UNK         0.0809 
     93 H93        25.1741   28.6093    4.0263 H         1 UNK         0.0809 
     94 H94        27.4208   27.6241    0.8663 H         1 UNK         0.2990 
     95 H95        25.2339   26.9162   -1.9511 H         1 UNK         0.0690 
     96 H96        26.4125   28.9487   -2.7412 H         1 UNK         0.0788 
     97 H97        26.9180   29.3203   -1.0946 H         1 UNK         0.0788 
     98 H98        25.2161   29.3530   -1.5198 H         1 UNK         0.0788 
     99 H99        28.0565   27.1902   -1.9011 H         1 UNK         0.2993 
    100 H100       28.5311   24.1307   -3.0189 H         1 UNK         0.0949 
    101 H101       29.9921   26.3627   -1.5037 H         1 UNK         0.0767 
    102 H102       30.7779   25.2078   -2.5729 H         1 UNK         0.0767 
    103 H103       29.5921   26.3258   -3.2153 H         1 UNK         0.0767 
    104 H104       29.2444   24.1373   -0.1182 H         1 UNK         0.3013 
    105 H105       29.1948   30.1962    7.2368 H         1 UNK         0.3121 
    106 H106       30.7431   27.8569    7.6007 H         1 UNK         0.0774 
    107 H107       31.5069   30.8223    7.6005 H         1 UNK         0.0815 
    108 H108       32.4604   29.5209    8.2947 H         1 UNK         0.0815 
    109 H109       30.9007   29.9169    8.9875 H         1 UNK         0.0815 
    110 H110       32.9811   27.6017    6.8426 H         1 UNK         0.2987 
    111 H111       33.1402   27.4407    3.9609 H         1 UNK         0.0949 
    112 H112       35.1293   26.6731    6.1536 H         1 UNK         0.0806 
    113 H113       33.9486   25.6055    5.3899 H         1 UNK         0.0806 
    114 H114       35.2739   26.2640    4.4491 H         1 UNK         0.0806 
    115 H115       32.8509   29.8728    3.8856 H         1 UNK         0.3010 
    116 H116       35.3759   31.1650    3.2149 H         1 UNK         0.0829 
    117 H117       34.9919   33.1490    4.6768 H         1 UNK         0.0813 
    118 H118       33.5492   32.3985    5.3670 H         1 UNK         0.0813 
    119 H119       35.1416   31.7163    5.6664 H         1 UNK         0.0813 
    120 H120       33.5731   33.7333    3.3816 H         1 UNK         0.3038 
    121 H121       32.8873   33.8568    0.6758 H         1 UNK         0.0769 
    122 H122       31.8553   35.5547    3.0132 H         1 UNK         0.0811 
    123 H123       31.7454   35.9929    1.3143 H         1 UNK         0.0811 
    124 H124       33.3200   35.8543    2.0756 H         1 UNK         0.0811 
    125 H125       30.9289   32.6473    3.3205 H         1 UNK         0.3204 
    126 H126       28.3626   32.7688    2.0834 H         1 UNK         0.0748 
    127 H127       27.7358   31.1158    3.8594 H         1 UNK         0.0771 
    128 H128       29.4273   30.9252    4.2807 H         1 UNK         0.0771 
    129 H129       28.6266   32.4768    4.5213 H         1 UNK         0.0771 
    130 H130       31.0722   30.6700    1.3713 H         1 UNK         0.2980 
    131 H131       29.5642   28.5279    0.1992 H         1 UNK         0.0545 
    132 H132       30.0390   31.8224   -0.9782 H         1 UNK         0.3459 
    133 H133       29.4990   31.4664   -2.6021 H         1 UNK         0.3459 
    134 H134       32.4380   29.4334   -0.3162 H         1 UNK         0.0616 
    135 H135       31.7472   27.9875   -0.9916 H         1 UNK         0.0616 
    136 H136       30.2762   26.3151    0.8725 H         1 UNK         0.0634 
    137 H137       31.7290   25.7841    0.0477 H         1 UNK         0.0634 
@<TRIPOS>BOND
     1    1    2 1    
     2    1   72 1    
     3    1   73 1    
     4    1   74 1    
     5    2    3 2    
     6    2    4 am   BACKBONE|DICT|INTERRES
     7    4    5 1    
     8    4   75 1    
     9    5    6 1    
    10    5   35 1    
    11    5   76 1    
    12    6    7 1    
    13    6   77 1    
    14    6   78 1    
    15    7    8 1    
    16    8    9 1    
    17    8   79 1    
    18    8   80 1    
    19    9   10 ar   
    20    9   14 ar   
    21   10   11 ar   
    22   10   81 1    
    23   11   12 ar   
    24   11   71 1    
    25   12   13 ar   
    26   12   82 1    
    27   13   14 ar   
    28   13   15 1    
    29   14   83 1    
    30   15   16 1    
    31   15   84 1    
    32   15   85 1    
    33   16   17 1    
    34   17   18 1    
    35   17   86 1    
    36   17   87 1    
    37   18   19 1    
    38   18   37 1    
    39   18   88 1    
    40   19   20 am   BACKBONE|DICT|INTERRES
    41   19   89 1    
    42   20   21 2    
    43   20   22 1    
    44   22   23 1    
    45   22   24 1    
    46   22   90 1    
    47   23   91 1    
    48   23   92 1    
    49   23   93 1    
    50   24   25 am   BACKBONE|DICT|INTERRES
    51   24   94 1    
    52   25   26 2    
    53   25   27 1    
    54   27   28 1    
    55   27   29 1    
    56   27   95 1    
    57   28   96 1    
    58   28   97 1    
    59   28   98 1    
    60   29   30 am   BACKBONE|DICT|INTERRES
    61   29   99 1    
    62   30   31 2    
    63   30   32 1    
    64   32   33 1    
    65   32   34 1    
    66   32  100 1    
    67   33  101 1    
    68   33  102 1    
    69   33  103 1    
    70   34   35 am   BACKBONE|DICT|INTERRES
    71   34  104 1    
    72   35   36 2    
    73   37   38 2    
    74   37   39 am   BACKBONE|DICT|INTERRES
    75   39   40 1    
    76   39  105 1    
    77   40   41 1    
    78   40   42 1    
    79   40  106 1    
    80   41  107 1    
    81   41  108 1    
    82   41  109 1    
    83   42   43 2    
    84   42   44 am   BACKBONE|DICT|INTERRES
    85   44   45 1    
    86   44  110 1    
    87   45   46 1    
    88   45   47 1    
    89   45  111 1    
    90   46  112 1    
    91   46  113 1    
    92   46  114 1    
    93   47   48 2    
    94   47   49 am   BACKBONE|DICT|INTERRES
    95   49   50 1    
    96   49  115 1    
    97   50   51 1    
    98   50   52 1    
    99   50  116 1    
   100   51  117 1    
   101   51  118 1    
   102   51  119 1    
   103   52   53 2    
   104   52   54 am   BACKBONE|DICT|INTERRES
   105   54   55 1    
   106   54  120 1    
   107   55   56 1    
   108   55   57 1    
   109   55  121 1    
   110   56  122 1    
   111   56  123 1    
   112   56  124 1    
   113   57   58 2    
   114   57   59 am   BACKBONE|DICT|INTERRES
   115   59   60 1    
   116   59  125 1    
   117   60   61 1    
   118   60   62 1    
   119   60  126 1    
   120   61  127 1    
   121   61  128 1    
   122   61  129 1    
   123   62   63 2    
   124   62   64 am   BACKBONE|DICT|INTERRES
   125   64   65 1    
   126   64  130 1    
   127   65   66 1    
   128   65   69 1    
   129   65  131 1    
   130   66   67 am   BACKBONE|DICT|INTERRES
   131   66   68 2    
   132   67  132 1    
   133   67  133 1    
   134   69   70 1    
   135   69  134 1    
   136   69  135 1    
   137   70   71 1    
   138   71  136 1    
   139   71  137 1    
@<TRIPOS>SUBSTRUCTURE
     1 UNK         1 GROUP             0       ****    0 ROOT    
