@<TRIPOS>MOLECULE
3R136
137   139    1
SMALL
USER_CHARGES


@<TRIPOS>ATOM
      1 CA         24.5825   21.1225    0.9723 C.3       0 UNK        -0.1979 
      2 C          25.6731   21.9947    0.3703 C.2       0 UNK         0.4864 
      3 O          25.3665   23.0039   -0.2690 O.2       0 UNK        -0.5359 
      4 N          26.9469   21.6213    0.5693 N.am      1 UNK        -0.4318 
      5 CA         28.1049   22.3800    0.0860 C.3       1 UNK         0.0824 
      6 C6         29.4305   21.5833    0.1516 C.3       12 UNK        -0.0944 
      7 S7         29.9964   21.1621    1.8373 S.3       12 UNK        -0.2672 
      8 C8         31.7623   21.6054    1.7560 C.3       12 UNK         0.0333 
      9 C9         32.0017   23.1108    1.7152 C.ar      12 UNK        -0.0807 
     10 C10        31.9369   23.8623    2.8924 C.ar      12 UNK        -0.0894 
     11 C11        32.2336   25.2284    2.8793 C.ar      12 UNK        -0.0804 
     12 C12        32.5890   25.8453    1.6766 C.ar      12 UNK        -0.0824 
     13 C13        32.6377   25.1125    0.4866 C.ar      12 UNK        -0.0762 
     14 C14        32.3462   23.7440    0.5151 C.ar      12 UNK        -0.0782 
     15 C15        33.0338   25.7849   -0.8269 C.3       12 UNK         0.0230 
     16 S16        32.0861   27.3051   -1.1854 S.3       12 UNK        -0.2608 
     17 C17        30.3781   26.6952   -1.0039 C.3       12 UNK        -0.0989 
     18 CA         29.2863   27.5716   -1.6750 C.3       5 UNK         0.0716 
     19 N          28.0787   26.7697   -1.8712 N.am      5 UNK        -0.4135 
     20 C          27.0908   26.9961   -2.7448 C.2       4 UNK         0.5031 
     21 O          27.1251   27.8654   -3.6172 O.2       4 UNK        -0.5229 
     22 CA         25.8470   26.0945   -2.6094 C.3       4 UNK         0.0329 
     23 CB         26.0891   24.7321   -3.2792 C.3       4 UNK        -0.2001 
     24 N          25.4594   25.8849   -1.2097 N.am      4 UNK        -0.4303 
     25 C          24.9327   26.8361   -0.4198 C.2       3 UNK         0.5044 
     26 O          24.5690   27.9404   -0.8244 O.2       3 UNK        -0.5152 
     27 CA         24.8336   26.5184    1.0784 C.3       3 UNK         0.0319 
     28 CB         23.6019   25.6496    1.3949 C.3       3 UNK        -0.2001 
     29 N          26.0702   25.8721    1.5060 N.am      3 UNK        -0.4354 
     30 C          26.5308   25.7182    2.7489 C.2       2 UNK         0.4964 
     31 O          25.9154   26.0699    3.7561 O.2       2 UNK        -0.5047 
     32 CA         27.9241   25.0592    2.8715 C.3       2 UNK         0.0288 
     33 CB         28.3112   24.7507    4.3294 C.3       2 UNK        -0.2113 
     34 N          28.0330   23.8298    2.0780 N.am      2 UNK        -0.4145 
     35 C          28.1841   23.7694    0.7467 C.2       1 UNK         0.5006 
     36 O          28.2543   24.7687    0.0332 O.2       1 UNK        -0.5103 
     37 C          28.9661   28.8404   -0.8483 C.2       5 UNK         0.5055 
     38 O          27.8269   29.0484   -0.4243 O.2       5 UNK        -0.5220 
     39 N          29.9983   29.6556   -0.5955 N.am      6 UNK        -0.4450 
     40 CA         29.9443   30.8866    0.2029 C.3       6 UNK         0.0367 
     41 CB         31.2420   31.6777   -0.0235 C.3       6 UNK        -0.1929 
     42 C          29.6850   30.6660    1.7098 C.2       6 UNK         0.5070 
     43 O          29.4354   31.6414    2.4202 O.2       6 UNK        -0.5237 
     44 N          29.7337   29.4051    2.1691 N.am      7 UNK        -0.4739 
     45 CA         29.3696   28.9336    3.5094 C.3       7 UNK         0.0276 
     46 CB         27.8431   29.0606    3.7171 C.3       7 UNK        -0.1927 
     47 C          30.2144   29.6152    4.5989 C.2       7 UNK         0.5013 
     48 O          31.4381   29.4817    4.5682 O.2       7 UNK        -0.5193 
     49 N          29.5761   30.3543    5.5160 N.am      8 UNK        -0.4253 
     50 CA         30.2141   31.0782    6.6207 C.3       8 UNK         0.0242 
     51 CB         29.1303   31.7553    7.4745 C.3       8 UNK        -0.2000 
     52 C          31.2784   32.1057    6.1912 C.2       8 UNK         0.4948 
     53 O          32.1920   32.3729    6.9708 O.2       8 UNK        -0.5275 
     54 N          31.1799   32.6372    4.9638 N.am      9 UNK        -0.4246 
     55 CA         32.1918   33.5250    4.3848 C.3       9 UNK         0.0261 
     56 CB         31.5678   34.3299    3.2348 C.3       9 UNK        -0.1959 
     57 C          33.4632   32.7850    3.9213 C.2       9 UNK         0.5033 
     58 O          34.4952   33.4370    3.7551 O.2       9 UNK        -0.5390 
     59 N          33.3821   31.4607    3.7255 N.am      10 UNK        -0.4215 
     60 CA         34.5095   30.5978    3.3704 C.3       10 UNK         0.0240 
     61 CB         34.0894   29.6237    2.2546 C.3       10 UNK        -0.1982 
     62 C          35.0208   29.8307    4.5976 C.2       10 UNK         0.4970 
     63 O          36.2170   29.8827    4.8855 O.2       10 UNK        -0.4916 
     64 N          34.1135   29.1266    5.2850 N.am      11 UNK        -0.4279 
     65 CA         34.4202   28.2576    6.4320 C.3       11 UNK         0.1003 
     66 C          34.4697   28.9880    7.8039 C.2       11 UNK         0.5709 
     67 N          34.0911   30.2546    7.9124 N.am      11 UNK        -0.7358 
     68 O          34.8823   28.3933    8.7971 O.2       11 UNK        -0.4999 
     69 C69        33.4776   27.0253    6.4750 C.3       12 UNK        -0.0954 
     70 S70        33.7622   25.9005    5.0669 S.3       12 UNK        -0.2268 
     71 C71        32.1920   26.0364    4.1652 C.3       12 UNK         0.0203 
     72 H72        23.9797   21.7058    1.6677 H         1 UNK         0.0888 
     73 H73        23.9285   20.7461    0.1863 H         1 UNK         0.0888 
     74 H74        24.9936   20.2690    1.5110 H         1 UNK         0.0888 
     75 H75        27.1536   20.7859    1.0991 H         1 UNK         0.3017 
     76 H76        27.9198   22.5662   -0.9746 H         1 UNK         0.0873 
     77 H77        30.2096   22.1360   -0.3736 H         1 UNK         0.0745 
     78 H78        29.3210   20.6504   -0.4036 H         1 UNK         0.0745 
     79 H79        32.2165   21.1182    0.8916 H         1 UNK         0.0705 
     80 H80        32.2638   21.1888    2.6308 H         1 UNK         0.0705 
     81 H81        31.6792   23.3777    3.8243 H         1 UNK         0.1334 
     82 H82        32.8314   26.8982    1.6641 H         1 UNK         0.1417 
     83 H83        32.4080   23.1650   -0.3962 H         1 UNK         0.1562 
     84 H84        32.9091   25.0970   -1.6646 H         1 UNK         0.0748 
     85 H85        34.0951   26.0334   -0.7891 H         1 UNK         0.0748 
     86 H86        30.1668   26.5515    0.0576 H         1 UNK         0.0940 
     87 H87        30.3585   25.6958   -1.4432 H         1 UNK         0.0940 
     88 H88        29.6408   27.8917   -2.6570 H         1 UNK         0.0703 
     89 H89        27.9654   26.0144   -1.1994 H         1 UNK         0.3081 
     90 H90        25.0188   26.5860   -3.1243 H         1 UNK         0.0719 
     91 H91        26.3621   24.8552   -4.3281 H         1 UNK         0.0809 
     92 H92        26.8941   24.1793   -2.7932 H         1 UNK         0.0809 
     93 H93        25.1935   24.1112   -3.2472 H         1 UNK         0.0809 
     94 H94        25.6106   24.9549   -0.8284 H         1 UNK         0.2990 
     95 H95        24.7439   27.4657    1.6144 H         1 UNK         0.0690 
     96 H96        23.4946   25.4847    2.4669 H         1 UNK         0.0788 
     97 H97        23.6578   24.6744    0.9114 H         1 UNK         0.0788 
     98 H98        22.6873   26.1333    1.0498 H         1 UNK         0.0788 
     99 H99        26.6889   25.5721    0.7591 H         1 UNK         0.2993 
    100 H100       28.6492   25.7778    2.4831 H         1 UNK         0.0949 
    101 H101       28.3275   25.6603    4.9314 H         1 UNK         0.0767 
    102 H102       27.6061   24.0614    4.7955 H         1 UNK         0.0767 
    103 H103       29.3038   24.3052    4.3904 H         1 UNK         0.0767 
    104 H104       27.9422   22.9586    2.5804 H         1 UNK         0.3013 
    105 H105       30.9080   29.3827   -0.9461 H         1 UNK         0.3121 
    106 H106       29.1130   31.4855   -0.1749 H         1 UNK         0.0774 
    107 H107       31.1808   32.6657    0.4304 H         1 UNK         0.0815 
    108 H108       32.1038   31.1707    0.4077 H         1 UNK         0.0815 
    109 H109       31.4368   31.8305   -1.0852 H         1 UNK         0.0815 
    110 H110       30.0003   28.6903    1.5092 H         1 UNK         0.2987 
    111 H111       29.6233   27.8737    3.5489 H         1 UNK         0.0949 
    112 H112       27.5280   28.5924    4.6508 H         1 UNK         0.0806 
    113 H113       27.2997   28.5645    2.9132 H         1 UNK         0.0806 
    114 H114       27.5093   30.0989    3.7299 H         1 UNK         0.0806 
    115 H115       28.5720   30.4331    5.4447 H         1 UNK         0.3010 
    116 H116       30.7227   30.3359    7.2398 H         1 UNK         0.0829 
    117 H117       28.4289   31.0258    7.8799 H         1 UNK         0.0813 
    118 H118       29.5727   32.2805    8.3224 H         1 UNK         0.0813 
    119 H119       28.5616   32.4870    6.8991 H         1 UNK         0.0813 
    120 H120       30.4143   32.3564    4.3612 H         1 UNK         0.3038 
    121 H121       32.5027   34.2373    5.1525 H         1 UNK         0.0769 
    122 H122       32.2997   34.9992    2.7805 H         1 UNK         0.0811 
    123 H123       30.7406   34.9463    3.5871 H         1 UNK         0.0811 
    124 H124       31.1872   33.6798    2.4500 H         1 UNK         0.0811 
    125 H125       32.5087   30.9877    3.9364 H         1 UNK         0.3204 
    126 H126       35.3407   31.1951    2.9895 H         1 UNK         0.0748 
    127 H127       34.8538   28.8638    2.0851 H         1 UNK         0.0771 
    128 H128       33.1598   29.1062    2.4919 H         1 UNK         0.0771 
    129 H129       33.9501   30.1479    1.3106 H         1 UNK         0.0771 
    130 H130       33.1370   29.1607    5.0003 H         1 UNK         0.2980 
    131 H131       35.4322   27.8718    6.2935 H         1 UNK         0.0545 
    132 H132       34.1425   30.7012    8.8138 H         1 UNK         0.3459 
    133 H133       33.7170   30.7687    7.1284 H         1 UNK         0.3459 
    134 H134       33.6430   26.4396    7.3811 H         1 UNK         0.0616 
    135 H135       32.4330   27.3409    6.5036 H         1 UNK         0.0616 
    136 H136       31.3725   25.6982    4.8007 H         1 UNK         0.0634 
    137 H137       32.0028   27.0833    3.9357 H         1 UNK         0.0634 
@<TRIPOS>BOND
     1    1    2 1    
     2    1   72 1    
     3    1   73 1    
     4    1   74 1    
     5    2    3 2    
     6    2    4 am   BACKBONE|DICT|INTERRES
     7    4    5 1    
     8    4   75 1    
     9    5    6 1    
    10    5   35 1    
    11    5   76 1    
    12    6    7 1    
    13    6   77 1    
    14    6   78 1    
    15    7    8 1    
    16    8    9 1    
    17    8   79 1    
    18    8   80 1    
    19    9   10 ar   
    20    9   14 ar   
    21   10   11 ar   
    22   10   81 1    
    23   11   12 ar   
    24   11   71 1    
    25   12   13 ar   
    26   12   82 1    
    27   13   14 ar   
    28   13   15 1    
    29   14   83 1    
    30   15   16 1    
    31   15   84 1    
    32   15   85 1    
    33   16   17 1    
    34   17   18 1    
    35   17   86 1    
    36   17   87 1    
    37   18   19 1    
    38   18   37 1    
    39   18   88 1    
    40   19   20 am   BACKBONE|DICT|INTERRES
    41   19   89 1    
    42   20   21 2    
    43   20   22 1    
    44   22   23 1    
    45   22   24 1    
    46   22   90 1    
    47   23   91 1    
    48   23   92 1    
    49   23   93 1    
    50   24   25 am   BACKBONE|DICT|INTERRES
    51   24   94 1    
    52   25   26 2    
    53   25   27 1    
    54   27   28 1    
    55   27   29 1    
    56   27   95 1    
    57   28   96 1    
    58   28   97 1    
    59   28   98 1    
    60   29   30 am   BACKBONE|DICT|INTERRES
    61   29   99 1    
    62   30   31 2    
    63   30   32 1    
    64   32   33 1    
    65   32   34 1    
    66   32  100 1    
    67   33  101 1    
    68   33  102 1    
    69   33  103 1    
    70   34   35 am   BACKBONE|DICT|INTERRES
    71   34  104 1    
    72   35   36 2    
    73   37   38 2    
    74   37   39 am   BACKBONE|DICT|INTERRES
    75   39   40 1    
    76   39  105 1    
    77   40   41 1    
    78   40   42 1    
    79   40  106 1    
    80   41  107 1    
    81   41  108 1    
    82   41  109 1    
    83   42   43 2    
    84   42   44 am   BACKBONE|DICT|INTERRES
    85   44   45 1    
    86   44  110 1    
    87   45   46 1    
    88   45   47 1    
    89   45  111 1    
    90   46  112 1    
    91   46  113 1    
    92   46  114 1    
    93   47   48 2    
    94   47   49 am   BACKBONE|DICT|INTERRES
    95   49   50 1    
    96   49  115 1    
    97   50   51 1    
    98   50   52 1    
    99   50  116 1    
   100   51  117 1    
   101   51  118 1    
   102   51  119 1    
   103   52   53 2    
   104   52   54 am   BACKBONE|DICT|INTERRES
   105   54   55 1    
   106   54  120 1    
   107   55   56 1    
   108   55   57 1    
   109   55  121 1    
   110   56  122 1    
   111   56  123 1    
   112   56  124 1    
   113   57   58 2    
   114   57   59 am   BACKBONE|DICT|INTERRES
   115   59   60 1    
   116   59  125 1    
   117   60   61 1    
   118   60   62 1    
   119   60  126 1    
   120   61  127 1    
   121   61  128 1    
   122   61  129 1    
   123   62   63 2    
   124   62   64 am   BACKBONE|DICT|INTERRES
   125   64   65 1    
   126   64  130 1    
   127   65   66 1    
   128   65   69 1    
   129   65  131 1    
   130   66   67 am   BACKBONE|DICT|INTERRES
   131   66   68 2    
   132   67  132 1    
   133   67  133 1    
   134   69   70 1    
   135   69  134 1    
   136   69  135 1    
   137   70   71 1    
   138   71  136 1    
   139   71  137 1    
@<TRIPOS>SUBSTRUCTURE
     1 UNK         1 GROUP             0       ****    0 ROOT    
