@<TRIPOS>MOLECULE
3R136
137   139    1
SMALL
USER_CHARGES


@<TRIPOS>ATOM
      1 CA         29.5362   18.8871    3.4794 C.3       0 UNK        -0.1979 
      2 C          29.4036   20.0578    2.5164 C.2       0 UNK         0.4864 
      3 O          30.1385   20.1239    1.5296 O.2       0 UNK        -0.5359 
      4 N          28.4790   20.9839    2.8000 N.am      1 UNK        -0.4318 
      5 CA         28.1821   22.1559    1.9716 C.3       1 UNK         0.0824 
      6 C6         27.2496   23.1549    2.7021 C.3       12 UNK        -0.0944 
      7 S7         27.9890   23.8436    4.2183 S.3       12 UNK        -0.2672 
      8 C8         28.3968   25.5357    3.6875 C.3       12 UNK         0.0333 
      9 C9         29.6608   25.5682    2.8416 C.ar      12 UNK        -0.0807 
     10 C10        30.9068   25.6687    3.4665 C.ar      12 UNK        -0.0894 
     11 C11        32.0789   25.7095    2.7085 C.ar      12 UNK        -0.0804 
     12 C12        31.9987   25.6518    1.3148 C.ar      12 UNK        -0.0824 
     13 C13        30.7594   25.5631    0.6725 C.ar      12 UNK        -0.0762 
     14 C14        29.5914   25.5164    1.4450 C.ar      12 UNK        -0.0782 
     15 C15        30.7164   25.5170   -0.8543 C.3       12 UNK         0.0230 
     16 S16        29.3813   26.5069   -1.6098 S.3       12 UNK        -0.2608 
     17 C17        29.6815   28.1711   -0.9172 C.3       12 UNK        -0.0989 
     18 CA         28.3842   29.0084   -0.7400 C.3       5 UNK         0.0716 
     19 N          27.3645   28.3172    0.0502 N.am      5 UNK        -0.4135 
     20 C          26.2641   27.7447   -0.4461 C.2       4 UNK         0.5031 
     21 O          25.9573   27.7470   -1.6415 O.2       4 UNK        -0.5229 
     22 CA         25.3349   27.0603    0.5607 C.3       4 UNK         0.0329 
     23 CB         24.2218   28.0158    1.0281 C.3       4 UNK        -0.2001 
     24 N          24.7673   25.8841   -0.0897 N.am      4 UNK        -0.4303 
     25 C          24.2148   24.8315    0.5192 C.2       3 UNK         0.5044 
     26 O          24.0626   24.7452    1.7377 O.2       3 UNK        -0.5152 
     27 CA         23.7994   23.6507   -0.3759 C.3       3 UNK         0.0319 
     28 CB         22.8670   24.0701   -1.5326 C.3       3 UNK        -0.2001 
     29 N          24.9674   22.8915   -0.8387 N.am      3 UNK        -0.4354 
     30 C          25.9354   23.2819   -1.6815 C.2       2 UNK         0.4964 
     31 O          25.9045   24.3266   -2.3326 O.2       2 UNK        -0.5047 
     32 CA         27.1816   22.3767   -1.7340 C.3       2 UNK         0.0288 
     33 CB         28.1603   22.7715   -2.8559 C.3       2 UNK        -0.2113 
     34 N          27.8808   22.4360   -0.4474 N.am      2 UNK        -0.4145 
     35 C          27.5237   21.7429    0.6421 C.2       1 UNK         0.5006 
     36 O          26.6412   20.8794    0.6388 O.2       1 UNK        -0.5103 
     37 C          28.7096   30.3198   -0.0125 C.2       5 UNK         0.5055 
     38 O          28.6405   30.3577    1.2184 O.2       5 UNK        -0.5220 
     39 N          29.1308   31.3490   -0.7609 N.am      6 UNK        -0.4450 
     40 CA         29.5846   32.6367   -0.2135 C.3       6 UNK         0.0367 
     41 CB         29.8285   33.6253   -1.3648 C.3       6 UNK        -0.1929 
     42 C          30.8418   32.5196    0.6713 C.2       6 UNK         0.5070 
     43 O          31.0256   33.3273    1.5822 O.2       6 UNK        -0.5237 
     44 N          31.6624   31.4918    0.4108 N.am      7 UNK        -0.4739 
     45 CA         32.8493   31.1317    1.1882 C.3       7 UNK         0.0276 
     46 CB         33.6215   30.0319    0.4420 C.3       7 UNK        -0.1927 
     47 C          32.5464   30.6769    2.6268 C.2       7 UNK         0.5013 
     48 O          33.4434   30.7533    3.4672 O.2       7 UNK        -0.5193 
     49 N          31.3071   30.2375    2.9056 N.am      8 UNK        -0.4253 
     50 CA         30.8617   29.7108    4.2043 C.3       8 UNK         0.0242 
     51 CB         29.4391   29.1482    4.0621 C.3       8 UNK        -0.2000 
     52 C          30.9288   30.7175    5.3699 C.2       8 UNK         0.4948 
     53 O          30.8274   30.3078    6.5261 O.2       8 UNK        -0.5275 
     54 N          31.1174   32.0080    5.0614 N.am      9 UNK        -0.4246 
     55 CA         31.4632   33.0497    6.0284 C.3       9 UNK         0.0261 
     56 CB         31.2692   34.4247    5.3686 C.3       9 UNK        -0.1959 
     57 C          32.8992   32.9135    6.5773 C.2       9 UNK         0.5033 
     58 O          33.1701   33.4428    7.6565 O.2       9 UNK        -0.5390 
     59 N          33.7876   32.2338    5.8369 N.am      10 UNK        -0.4215 
     60 CA         35.1889   32.0131    6.1873 C.3       10 UNK         0.0240 
     61 CB         36.0885   32.4968    5.0358 C.3       10 UNK        -0.1982 
     62 C          35.4547   30.5358    6.5094 C.2       10 UNK         0.4970 
     63 O          35.9698   30.2499    7.5915 O.2       10 UNK        -0.4916 
     64 N          35.1301   29.6282    5.5766 N.am      11 UNK        -0.4279 
     65 CA         35.3458   28.1800    5.7370 C.3       11 UNK         0.1003 
     66 C          34.3025   27.4955    6.6644 C.2       11 UNK         0.5709 
     67 N          34.6051   26.3012    7.1567 N.am      11 UNK        -0.7358 
     68 O          33.2214   28.0163    6.9277 O.2       11 UNK        -0.4999 
     69 C69        35.5187   27.4529    4.3746 C.3       12 UNK        -0.0954 
     70 S70        34.0613   27.5228    3.2832 S.3       12 UNK        -0.2268 
     71 C71        33.4311   25.8239    3.3934 C.3       12 UNK         0.0203 
     72 H72        28.8361   18.9622    4.3113 H         1 UNK         0.0888 
     73 H73        30.5455   18.8499    3.8883 H         1 UNK         0.0888 
     74 H74        29.3441   17.9495    2.9584 H         1 UNK         0.0888 
     75 H75        27.9009   20.8761    3.6208 H         1 UNK         0.3017 
     76 H76        29.1294   22.6531    1.7515 H         1 UNK         0.0873 
     77 H77        26.3122   22.6687    2.9806 H         1 UNK         0.0745 
     78 H78        26.9648   23.9766    2.0424 H         1 UNK         0.0745 
     79 H79        27.5562   25.9764    3.1503 H         1 UNK         0.0705 
     80 H80        28.5373   26.1508    4.5775 H         1 UNK         0.0705 
     81 H81        30.9630   25.7171    4.5456 H         1 UNK         0.1334 
     82 H82        32.9088   25.6890    0.7314 H         1 UNK         0.1417 
     83 H83        28.6285   25.4523    0.9582 H         1 UNK         0.1562 
     84 H84        30.6047   24.4793   -1.1699 H         1 UNK         0.0748 
     85 H85        31.6639   25.8627   -1.2712 H         1 UNK         0.0748 
     86 H86        30.3778   28.6847   -1.5825 H         1 UNK         0.0940 
     87 H87        30.1991   28.0742    0.0388 H         1 UNK         0.0940 
     88 H88        27.9850   29.2601   -1.7250 H         1 UNK         0.0703 
     89 H89        27.5021   28.3780    1.0499 H         1 UNK         0.3081 
     90 H90        25.9230   26.7354    1.4213 H         1 UNK         0.0719 
     91 H91        23.5966   28.3404    0.1952 H         1 UNK         0.0809 
     92 H92        23.5748   27.5444    1.7680 H         1 UNK         0.0809 
     93 H93        24.6421   28.9099    1.4902 H         1 UNK         0.0809 
     94 H94        24.9372   25.8335   -1.0909 H         1 UNK         0.2990 
     95 H95        23.2331   22.9647    0.2564 H         1 UNK         0.0690 
     96 H96        22.5332   23.2024   -2.1015 H         1 UNK         0.0788 
     97 H97        23.3417   24.7604   -2.2298 H         1 UNK         0.0788 
     98 H98        21.9752   24.5662   -1.1474 H         1 UNK         0.0788 
     99 H99        25.1411   22.0308   -0.3298 H         1 UNK         0.2993 
    100 H100       26.8469   21.3544   -1.9257 H         1 UNK         0.0949 
    101 H101       27.6740   22.7212   -3.8309 H         1 UNK         0.0767 
    102 H102       28.5339   23.7883   -2.7316 H         1 UNK         0.0767 
    103 H103       29.0189   22.1005   -2.8872 H         1 UNK         0.0767 
    104 H104       28.5980   23.1411   -0.3657 H         1 UNK         0.3013 
    105 H105       29.1645   31.2460   -1.7657 H         1 UNK         0.3121 
    106 H106       28.7833   33.0326    0.4143 H         1 UNK         0.0774 
    107 H107       28.9224   33.7876   -1.9487 H         1 UNK         0.0815 
    108 H108       30.6084   33.2744   -2.0418 H         1 UNK         0.0815 
    109 H109       30.1429   34.5977   -0.9827 H         1 UNK         0.0815 
    110 H110       31.4368   30.8953   -0.3709 H         1 UNK         0.2987 
    111 H111       33.4861   32.0164    1.2571 H         1 UNK         0.0949 
    112 H112       33.0317   29.1192    0.3440 H         1 UNK         0.0806 
    113 H113       33.9139   30.3558   -0.5569 H         1 UNK         0.0806 
    114 H114       34.5362   29.7689    0.9756 H         1 UNK         0.0806 
    115 H115       30.6086   30.2590    2.1723 H         1 UNK         0.3010 
    116 H116       31.5289   28.8852    4.4619 H         1 UNK         0.0829 
    117 H117       29.3773   28.4269    3.2478 H         1 UNK         0.0813 
    118 H118       29.1290   28.6380    4.9748 H         1 UNK         0.0813 
    119 H119       28.7127   29.9379    3.8674 H         1 UNK         0.0813 
    120 H120       31.1535   32.2634    4.0837 H         1 UNK         0.3038 
    121 H121       30.7775   32.9744    6.8751 H         1 UNK         0.0769 
    122 H122       31.9178   34.5513    4.5006 H         1 UNK         0.0811 
    123 H123       31.4985   35.2298    6.0682 H         1 UNK         0.0811 
    124 H124       30.2392   34.5658    5.0404 H         1 UNK         0.0811 
    125 H125       33.4761   31.7886    4.9757 H         1 UNK         0.3204 
    126 H126       35.4522   32.5923    7.0750 H         1 UNK         0.0748 
    127 H127       35.9629   33.5657    4.8622 H         1 UNK         0.0771 
    128 H128       37.1414   32.3277    5.2652 H         1 UNK         0.0771 
    129 H129       35.8703   31.9809    4.0999 H         1 UNK         0.0771 
    130 H130       34.6488   29.9211    4.7313 H         1 UNK         0.2980 
    131 H131       36.3030   28.0693    6.2508 H         1 UNK         0.0545 
    132 H132       33.9400   25.8386    7.7561 H         1 UNK         0.3459 
    133 H133       35.4871   25.8583    6.9523 H         1 UNK         0.3459 
    134 H134       36.3516   27.9025    3.8323 H         1 UNK         0.0616 
    135 H135       35.8061   26.4118    4.5300 H         1 UNK         0.0616 
    136 H136       33.3533   25.5312    4.4416 H         1 UNK         0.0634 
    137 H137       34.1437   25.1407    2.9290 H         1 UNK         0.0634 
@<TRIPOS>BOND
     1    1    2 1    
     2    1   72 1    
     3    1   73 1    
     4    1   74 1    
     5    2    3 2    
     6    2    4 am   BACKBONE|DICT|INTERRES
     7    4    5 1    
     8    4   75 1    
     9    5    6 1    
    10    5   35 1    
    11    5   76 1    
    12    6    7 1    
    13    6   77 1    
    14    6   78 1    
    15    7    8 1    
    16    8    9 1    
    17    8   79 1    
    18    8   80 1    
    19    9   10 ar   
    20    9   14 ar   
    21   10   11 ar   
    22   10   81 1    
    23   11   12 ar   
    24   11   71 1    
    25   12   13 ar   
    26   12   82 1    
    27   13   14 ar   
    28   13   15 1    
    29   14   83 1    
    30   15   16 1    
    31   15   84 1    
    32   15   85 1    
    33   16   17 1    
    34   17   18 1    
    35   17   86 1    
    36   17   87 1    
    37   18   19 1    
    38   18   37 1    
    39   18   88 1    
    40   19   20 am   BACKBONE|DICT|INTERRES
    41   19   89 1    
    42   20   21 2    
    43   20   22 1    
    44   22   23 1    
    45   22   24 1    
    46   22   90 1    
    47   23   91 1    
    48   23   92 1    
    49   23   93 1    
    50   24   25 am   BACKBONE|DICT|INTERRES
    51   24   94 1    
    52   25   26 2    
    53   25   27 1    
    54   27   28 1    
    55   27   29 1    
    56   27   95 1    
    57   28   96 1    
    58   28   97 1    
    59   28   98 1    
    60   29   30 am   BACKBONE|DICT|INTERRES
    61   29   99 1    
    62   30   31 2    
    63   30   32 1    
    64   32   33 1    
    65   32   34 1    
    66   32  100 1    
    67   33  101 1    
    68   33  102 1    
    69   33  103 1    
    70   34   35 am   BACKBONE|DICT|INTERRES
    71   34  104 1    
    72   35   36 2    
    73   37   38 2    
    74   37   39 am   BACKBONE|DICT|INTERRES
    75   39   40 1    
    76   39  105 1    
    77   40   41 1    
    78   40   42 1    
    79   40  106 1    
    80   41  107 1    
    81   41  108 1    
    82   41  109 1    
    83   42   43 2    
    84   42   44 am   BACKBONE|DICT|INTERRES
    85   44   45 1    
    86   44  110 1    
    87   45   46 1    
    88   45   47 1    
    89   45  111 1    
    90   46  112 1    
    91   46  113 1    
    92   46  114 1    
    93   47   48 2    
    94   47   49 am   BACKBONE|DICT|INTERRES
    95   49   50 1    
    96   49  115 1    
    97   50   51 1    
    98   50   52 1    
    99   50  116 1    
   100   51  117 1    
   101   51  118 1    
   102   51  119 1    
   103   52   53 2    
   104   52   54 am   BACKBONE|DICT|INTERRES
   105   54   55 1    
   106   54  120 1    
   107   55   56 1    
   108   55   57 1    
   109   55  121 1    
   110   56  122 1    
   111   56  123 1    
   112   56  124 1    
   113   57   58 2    
   114   57   59 am   BACKBONE|DICT|INTERRES
   115   59   60 1    
   116   59  125 1    
   117   60   61 1    
   118   60   62 1    
   119   60  126 1    
   120   61  127 1    
   121   61  128 1    
   122   61  129 1    
   123   62   63 2    
   124   62   64 am   BACKBONE|DICT|INTERRES
   125   64   65 1    
   126   64  130 1    
   127   65   66 1    
   128   65   69 1    
   129   65  131 1    
   130   66   67 am   BACKBONE|DICT|INTERRES
   131   66   68 2    
   132   67  132 1    
   133   67  133 1    
   134   69   70 1    
   135   69  134 1    
   136   69  135 1    
   137   70   71 1    
   138   71  136 1    
   139   71  137 1    
@<TRIPOS>SUBSTRUCTURE
     1 UNK         1 GROUP             0       ****    0 ROOT    
