@<TRIPOS>MOLECULE
3R136
137   139    1
SMALL
USER_CHARGES


@<TRIPOS>ATOM
      1 CA         32.5182   20.8540    1.8401 C.3       0 UNK        -0.1979 
      2 C          31.5808   20.6871    0.6530 C.2       0 UNK         0.4864 
      3 O          31.3012   19.5566    0.2505 O.2       0 UNK        -0.5359 
      4 N          31.1086   21.8062    0.0913 N.am      1 UNK        -0.4318 
      5 CA         30.1363   21.8747   -1.0014 C.3       1 UNK         0.0824 
      6 C6         30.5727   22.9071   -2.0855 C.3       12 UNK        -0.0944 
      7 S7         30.3429   24.6892   -1.7332 S.3       12 UNK        -0.2672 
      8 C8         31.8083   25.1420   -0.7425 C.3       12 UNK         0.0333 
      9 C9         31.7006   24.8689    0.7606 C.ar      12 UNK        -0.0807 
     10 C10        32.8683   24.9009    1.5275 C.ar      12 UNK        -0.0894 
     11 C11        32.8343   24.6333    2.8989 C.ar      12 UNK        -0.0804 
     12 C12        31.6192   24.3071    3.5074 C.ar      12 UNK        -0.0824 
     13 C13        30.4392   24.2702    2.7597 C.ar      12 UNK        -0.0762 
     14 C14        30.4849   24.5838    1.3970 C.ar      12 UNK        -0.0782 
     15 C15        29.1424   23.7966    3.4098 C.3       12 UNK         0.0230 
     16 S16        27.6712   24.7398    2.8941 S.3       12 UNK        -0.2608 
     17 C17        27.7005   26.1596    4.0410 C.3       12 UNK        -0.0989 
     18 CA         28.4007   27.4287    3.4831 C.3       5 UNK         0.0716 
     19 N          28.0268   27.6900    2.0929 N.am      5 UNK        -0.4135 
     20 C          28.3981   28.7152    1.3161 C.2       4 UNK         0.5031 
     21 O          29.0836   29.6666    1.6950 O.2       4 UNK        -0.5229 
     22 CA         27.9740   28.6552   -0.1624 C.3       4 UNK         0.0329 
     23 CB         29.1969   28.3332   -1.0353 C.3       4 UNK        -0.2001 
     24 N          26.9222   27.6713   -0.4436 N.am      4 UNK        -0.4303 
     25 C          25.6369   27.7850   -0.0878 C.2       3 UNK         0.5044 
     26 O          25.1853   28.7616    0.5099 O.2       3 UNK        -0.5152 
     27 CA         24.6898   26.6175   -0.4305 C.3       3 UNK         0.0319 
     28 CB         24.0864   26.7960   -1.8376 C.3       3 UNK        -0.2001 
     29 N          25.2486   25.2649   -0.2536 N.am      3 UNK        -0.4354 
     30 C          26.2303   24.6634   -0.9404 C.2       2 UNK         0.4964 
     31 O          26.8827   25.2085   -1.8338 O.2       2 UNK        -0.5047 
     32 CA         26.5222   23.2032   -0.5728 C.3       2 UNK         0.0288 
     33 CB         25.4956   22.2539   -1.2161 C.3       2 UNK        -0.2113 
     34 N          27.8642   22.8589   -1.0350 N.am      2 UNK        -0.4145 
     35 C          28.7057   22.0194   -0.4227 C.2       1 UNK         0.5006 
     36 O          28.3853   21.3632    0.5717 O.2       1 UNK        -0.5103 
     37 C          28.1109   28.6338    4.4011 C.2       5 UNK         0.5055 
     38 O          26.9416   28.9512    4.6302 O.2       5 UNK        -0.5220 
     39 N          29.1767   29.2742    4.8985 N.am      6 UNK        -0.4450 
     40 CA         29.1865   30.4570    5.7685 C.3       6 UNK         0.0367 
     41 CB         28.4708   30.1829    7.1084 C.3       6 UNK        -0.1929 
     42 C          28.6945   31.7456    5.0776 C.2       6 UNK         0.5070 
     43 O          28.4037   32.7253    5.7657 O.2       6 UNK        -0.5237 
     44 N          28.6365   31.7378    3.7410 N.am      7 UNK        -0.4739 
     45 CA         28.3087   32.8782    2.8947 C.3       7 UNK         0.0276 
     46 CB         27.0292   32.5665    2.0909 C.3       7 UNK        -0.1927 
     47 C          29.5383   33.1638    2.0247 C.2       7 UNK         0.5013 
     48 O          30.4429   33.8662    2.4777 O.2       7 UNK        -0.5193 
     49 N          29.5697   32.5995    0.8102 N.am      8 UNK        -0.4253 
     50 CA         30.7005   32.6868   -0.1161 C.3       8 UNK         0.0242 
     51 CB         30.2374   32.2936   -1.5282 C.3       8 UNK        -0.2000 
     52 C          31.9076   31.8386    0.3246 C.2       8 UNK         0.4948 
     53 O          33.0422   32.2253    0.0411 O.2       8 UNK        -0.5275 
     54 N          31.6530   30.7188    1.0139 N.am      9 UNK        -0.4246 
     55 CA         32.6634   29.8535    1.6114 C.3       9 UNK         0.0261 
     56 CB         32.4225   28.4040    1.1605 C.3       9 UNK        -0.1959 
     57 C          32.5441   29.9978    3.1293 C.2       9 UNK         0.5033 
     58 O          31.6771   29.3645    3.7366 O.2       9 UNK        -0.5390 
     59 N          33.3930   30.8482    3.7200 N.am      10 UNK        -0.4215 
     60 CA         33.4101   31.2112    5.1440 C.3       10 UNK         0.0240 
     61 CB         34.2157   32.5134    5.3115 C.3       10 UNK        -0.1982 
     62 C          33.9022   30.0830    6.0807 C.2       10 UNK         0.4970 
     63 O          34.7497   30.3192    6.9435 O.2       10 UNK        -0.4916 
     64 N          33.3592   28.8780    5.8927 N.am      11 UNK        -0.4279 
     65 CA         33.6474   27.6605    6.6624 C.3       11 UNK         0.1003 
     66 C          32.9024   27.5759    8.0265 C.2       11 UNK         0.5709 
     67 N          31.9878   28.4838    8.3483 N.am      11 UNK        -0.7358 
     68 O          33.1694   26.6728    8.8159 O.2       11 UNK        -0.4999 
     69 C69        33.3948   26.3945    5.8027 C.3       12 UNK        -0.0954 
     70 S70        34.4803   26.3294    4.3383 S.3       12 UNK        -0.2268 
     71 C71        34.1212   24.6617    3.7090 C.3       12 UNK         0.0203 
     72 H72        33.3987   20.2239    1.7179 H         1 UNK         0.0888 
     73 H73        32.8560   21.8839    1.9484 H         1 UNK         0.0888 
     74 H74        32.0131   20.5625    2.7605 H         1 UNK         0.0888 
     75 H75        31.3501   22.6994    0.5002 H         1 UNK         0.3017 
     76 H76        30.1268   20.9067   -1.5068 H         1 UNK         0.0873 
     77 H77        31.6183   22.7405   -2.3498 H         1 UNK         0.0745 
     78 H78        30.0216   22.7010   -3.0047 H         1 UNK         0.0745 
     79 H79        31.9852   26.2081   -0.8818 H         1 UNK         0.0705 
     80 H80        32.6816   24.6316   -1.1515 H         1 UNK         0.0705 
     81 H81        33.8130   25.1350    1.0552 H         1 UNK         0.1334 
     82 H82        31.5984   24.0627    4.5606 H         1 UNK         0.1417 
     83 H83        29.5662   24.5617    0.8304 H         1 UNK         0.1562 
     84 H84        29.2204   23.8053    4.4979 H         1 UNK         0.0748 
     85 H85        28.9904   22.7544    3.1254 H         1 UNK         0.0748 
     86 H86        28.1592   25.8599    4.9849 H         1 UNK         0.0940 
     87 H87        26.6556   26.3713    4.2781 H         1 UNK         0.0940 
     88 H88        29.4773   27.2427    3.4796 H         1 UNK         0.0703 
     89 H89        27.4635   26.9691    1.6688 H         1 UNK         0.3081 
     90 H90        27.6019   29.6443   -0.4367 H         1 UNK         0.0719 
     91 H91        29.5961   27.3461   -0.8057 H         1 UNK         0.0809 
     92 H92        28.9496   28.3584   -2.0966 H         1 UNK         0.0809 
     93 H93        30.0038   29.0474   -0.8711 H         1 UNK         0.0809 
     94 H94        27.1838   26.8433   -0.9742 H         1 UNK         0.2990 
     95 H95        23.8648   26.6794    0.2813 H         1 UNK         0.0690 
     96 H96        23.3507   26.0215   -2.0547 H         1 UNK         0.0788 
     97 H97        24.8480   26.7631   -2.6172 H         1 UNK         0.0788 
     98 H98        23.5788   27.7577   -1.9235 H         1 UNK         0.0788 
     99 H99        24.8039   24.7261    0.4776 H         1 UNK         0.2993 
    100 H100       26.4750   23.1116    0.5148 H         1 UNK         0.0949 
    101 H101       25.5116   22.3235   -2.3046 H         1 UNK         0.0767 
    102 H102       25.6925   21.2165   -0.9445 H         1 UNK         0.0767 
    103 H103       24.4820   22.4867   -0.8875 H         1 UNK         0.0767 
    104 H104       28.2104   23.4456   -1.7868 H         1 UNK         0.3013 
    105 H105       30.0938   29.0302    4.5221 H         1 UNK         0.3121 
    106 H106       30.2363   30.6354    5.9992 H         1 UNK         0.0774 
    107 H107       28.6371   30.9979    7.8137 H         1 UNK         0.0815 
    108 H108       27.3927   30.0839    6.9805 H         1 UNK         0.0815 
    109 H109       28.8398   29.2707    7.5771 H         1 UNK         0.0815 
    110 H110       28.9099   30.8916    3.2485 H         1 UNK         0.2987 
    111 H111       28.1257   33.7731    3.4937 H         1 UNK         0.0949 
    112 H112       26.8107   33.3596    1.3744 H         1 UNK         0.0806 
    113 H113       27.0964   31.6270    1.5419 H         1 UNK         0.0806 
    114 H114       26.1680   32.4893    2.7547 H         1 UNK         0.0806 
    115 H115       28.7987   32.0072    0.5391 H         1 UNK         0.3010 
    116 H116       31.0317   33.7272   -0.1491 H         1 UNK         0.0829 
    117 H117       29.4627   32.9689   -1.8920 H         1 UNK         0.0813 
    118 H118       31.0648   32.3409   -2.2377 H         1 UNK         0.0813 
    119 H119       29.8385   31.2804   -1.5597 H         1 UNK         0.0813 
    120 H120       30.6897   30.4814    1.2443 H         1 UNK         0.3038 
    121 H121       33.6702   30.1418    1.3022 H         1 UNK         0.0769 
    122 H122       33.1527   27.7349    1.6163 H         1 UNK         0.0811 
    123 H123       32.5216   28.3111    0.0798 H         1 UNK         0.0811 
    124 H124       31.4321   28.0419    1.4396 H         1 UNK         0.0811 
    125 H125       34.0761   31.3136    3.1392 H         1 UNK         0.3204 
    126 H126       32.3828   31.4304    5.4388 H         1 UNK         0.0748 
    127 H127       34.1892   32.8627    6.3448 H         1 UNK         0.0771 
    128 H128       35.2630   32.3775    5.0389 H         1 UNK         0.0771 
    129 H129       33.8081   33.3145    4.6943 H         1 UNK         0.0771 
    130 H130       32.6783   28.7867    5.1430 H         1 UNK         0.2980 
    131 H131       34.7091   27.6751    6.9158 H         1 UNK         0.0545 
    132 H132       31.5211   28.4176    9.2388 H         1 UNK         0.3459 
    133 H133       31.7701   29.2348    7.7160 H         1 UNK         0.3459 
    134 H134       32.3549   26.3591    5.4736 H         1 UNK         0.0616 
    135 H135       33.5696   25.4899    6.3880 H         1 UNK         0.0616 
    136 H136       34.0727   23.9525    4.5366 H         1 UNK         0.0634 
    137 H137       34.9552   24.3391    3.0841 H         1 UNK         0.0634 
@<TRIPOS>BOND
     1    1    2 1    
     2    1   72 1    
     3    1   73 1    
     4    1   74 1    
     5    2    3 2    
     6    2    4 am   BACKBONE|DICT|INTERRES
     7    4    5 1    
     8    4   75 1    
     9    5    6 1    
    10    5   35 1    
    11    5   76 1    
    12    6    7 1    
    13    6   77 1    
    14    6   78 1    
    15    7    8 1    
    16    8    9 1    
    17    8   79 1    
    18    8   80 1    
    19    9   10 ar   
    20    9   14 ar   
    21   10   11 ar   
    22   10   81 1    
    23   11   12 ar   
    24   11   71 1    
    25   12   13 ar   
    26   12   82 1    
    27   13   14 ar   
    28   13   15 1    
    29   14   83 1    
    30   15   16 1    
    31   15   84 1    
    32   15   85 1    
    33   16   17 1    
    34   17   18 1    
    35   17   86 1    
    36   17   87 1    
    37   18   19 1    
    38   18   37 1    
    39   18   88 1    
    40   19   20 am   BACKBONE|DICT|INTERRES
    41   19   89 1    
    42   20   21 2    
    43   20   22 1    
    44   22   23 1    
    45   22   24 1    
    46   22   90 1    
    47   23   91 1    
    48   23   92 1    
    49   23   93 1    
    50   24   25 am   BACKBONE|DICT|INTERRES
    51   24   94 1    
    52   25   26 2    
    53   25   27 1    
    54   27   28 1    
    55   27   29 1    
    56   27   95 1    
    57   28   96 1    
    58   28   97 1    
    59   28   98 1    
    60   29   30 am   BACKBONE|DICT|INTERRES
    61   29   99 1    
    62   30   31 2    
    63   30   32 1    
    64   32   33 1    
    65   32   34 1    
    66   32  100 1    
    67   33  101 1    
    68   33  102 1    
    69   33  103 1    
    70   34   35 am   BACKBONE|DICT|INTERRES
    71   34  104 1    
    72   35   36 2    
    73   37   38 2    
    74   37   39 am   BACKBONE|DICT|INTERRES
    75   39   40 1    
    76   39  105 1    
    77   40   41 1    
    78   40   42 1    
    79   40  106 1    
    80   41  107 1    
    81   41  108 1    
    82   41  109 1    
    83   42   43 2    
    84   42   44 am   BACKBONE|DICT|INTERRES
    85   44   45 1    
    86   44  110 1    
    87   45   46 1    
    88   45   47 1    
    89   45  111 1    
    90   46  112 1    
    91   46  113 1    
    92   46  114 1    
    93   47   48 2    
    94   47   49 am   BACKBONE|DICT|INTERRES
    95   49   50 1    
    96   49  115 1    
    97   50   51 1    
    98   50   52 1    
    99   50  116 1    
   100   51  117 1    
   101   51  118 1    
   102   51  119 1    
   103   52   53 2    
   104   52   54 am   BACKBONE|DICT|INTERRES
   105   54   55 1    
   106   54  120 1    
   107   55   56 1    
   108   55   57 1    
   109   55  121 1    
   110   56  122 1    
   111   56  123 1    
   112   56  124 1    
   113   57   58 2    
   114   57   59 am   BACKBONE|DICT|INTERRES
   115   59   60 1    
   116   59  125 1    
   117   60   61 1    
   118   60   62 1    
   119   60  126 1    
   120   61  127 1    
   121   61  128 1    
   122   61  129 1    
   123   62   63 2    
   124   62   64 am   BACKBONE|DICT|INTERRES
   125   64   65 1    
   126   64  130 1    
   127   65   66 1    
   128   65   69 1    
   129   65  131 1    
   130   66   67 am   BACKBONE|DICT|INTERRES
   131   66   68 2    
   132   67  132 1    
   133   67  133 1    
   134   69   70 1    
   135   69  134 1    
   136   69  135 1    
   137   70   71 1    
   138   71  136 1    
   139   71  137 1    
@<TRIPOS>SUBSTRUCTURE
     1 UNK         1 GROUP             0       ****    0 ROOT    
