@<TRIPOS>MOLECULE
3R136
137   139    1
SMALL
USER_CHARGES


@<TRIPOS>ATOM
      1 CA         25.2804   20.2682    3.3299 C.3       0 UNK        -0.1979 
      2 C          26.7767   20.2848    3.0548 C.2       0 UNK         0.4864 
      3 O          27.2584   19.4877    2.2489 O.2       0 UNK        -0.5359 
      4 N          27.5140   21.1868    3.7187 N.am      1 UNK        -0.4318 
      5 CA         28.9630   21.3751    3.5572 C.3       1 UNK         0.0824 
      6 C6         29.5412   22.2155    4.7244 C.3       12 UNK        -0.0944 
      7 S7         31.3019   21.8589    5.0370 S.3       12 UNK        -0.2672 
      8 C8         31.9502   23.5087    5.4554 C.3       12 UNK         0.0333 
      9 C9         31.9074   24.4707    4.2760 C.ar      12 UNK        -0.0807 
     10 C10        32.6791   24.2205    3.1376 C.ar      12 UNK        -0.0894 
     11 C11        32.6642   25.1104    2.0602 C.ar      12 UNK        -0.0804 
     12 C12        31.8715   26.2594    2.1280 C.ar      12 UNK        -0.0824 
     13 C13        31.0975   26.5221    3.2620 C.ar      12 UNK        -0.0762 
     14 C14        31.1152   25.6221    4.3316 C.ar      12 UNK        -0.0782 
     15 C15        30.2900   27.8069    3.3519 C.3       12 UNK         0.0230 
     16 S16        28.5178   27.5139    3.0677 S.3       12 UNK        -0.2608 
     17 C17        27.9830   29.2135    2.6823 C.3       12 UNK        -0.0989 
     18 CA         27.8461   29.4091    1.1526 C.3       5 UNK         0.0716 
     19 N          26.6914   28.6868    0.6060 N.am      5 UNK        -0.4135 
     20 C          26.6382   28.1964   -0.6371 C.2       4 UNK         0.5031 
     21 O          27.5636   28.2641   -1.4496 O.2       4 UNK        -0.5229 
     22 CA         25.3353   27.5100   -1.0537 C.3       4 UNK         0.0329 
     23 CB         24.5688   28.3560   -2.0885 C.3       4 UNK        -0.2001 
     24 N          25.6912   26.2079   -1.6028 N.am      4 UNK        -0.4303 
     25 C          24.8677   25.1657   -1.7579 C.2       3 UNK         0.5044 
     26 O          23.6538   25.2064   -1.5532 O.2       3 UNK        -0.5152 
     27 CA         25.5223   23.8377   -2.1814 C.3       3 UNK         0.0319 
     28 CB         25.6695   23.7676   -3.7102 C.3       3 UNK        -0.2001 
     29 N          26.8294   23.6154   -1.5493 N.am      3 UNK        -0.4354 
     30 C          27.0119   23.4463   -0.2319 C.2       2 UNK         0.4964 
     31 O          26.0937   23.4253    0.5938 O.2       2 UNK        -0.5047 
     32 CA         28.4608   23.2899    0.2458 C.3       2 UNK         0.0288 
     33 CB         29.2085   24.6348    0.2244 C.3       2 UNK        -0.2113 
     34 N          28.4267   22.7651    1.6057 N.am      2 UNK        -0.4145 
     35 C          29.3318   21.9584    2.1714 C.2       1 UNK         0.5006 
     36 O          30.3897   21.6330    1.6291 O.2       1 UNK        -0.5103 
     37 C          27.8180   30.9060    0.7901 C.2       5 UNK         0.5055 
     38 O          28.8768   31.5314    0.7978 O.2       5 UNK        -0.5220 
     39 N          26.6294   31.4664    0.5053 N.am      6 UNK        -0.4450 
     40 CA         26.3880   32.8678    0.1185 C.3       6 UNK         0.0367 
     41 CB         26.9028   33.1186   -1.3150 C.3       6 UNK        -0.1929 
     42 C          26.9357   33.8993    1.1317 C.2       6 UNK         0.5070 
     43 O          27.3833   34.9762    0.7351 O.2       6 UNK        -0.5237 
     44 N          26.9090   33.5283    2.4211 N.am      7 UNK        -0.4739 
     45 CA         27.4500   34.2508    3.5811 C.3       7 UNK         0.0276 
     46 CB         26.7286   35.6015    3.7817 C.3       7 UNK        -0.1927 
     47 C          28.9888   34.3969    3.5964 C.2       7 UNK         0.5013 
     48 O          29.5023   35.1893    4.3892 O.2       7 UNK        -0.5193 
     49 N          29.7076   33.6301    2.7626 N.am      8 UNK        -0.4253 
     50 CA         31.1700   33.5433    2.7792 C.3       8 UNK         0.0242 
     51 CB         31.6662   33.0874    1.3960 C.3       8 UNK        -0.2000 
     52 C          31.6560   32.5774    3.8744 C.2       8 UNK         0.4948 
     53 O          30.8694   31.7856    4.4031 O.2       8 UNK        -0.5275 
     54 N          32.9579   32.6523    4.1804 N.am      9 UNK        -0.4246 
     55 CA         33.6497   31.7650    5.1192 C.3       9 UNK         0.0261 
     56 CB         35.0638   32.3124    5.3757 C.3       9 UNK        -0.1959 
     57 C          33.7201   30.3148    4.6066 C.2       9 UNK         0.5033 
     58 O          33.7484   30.0903    3.3932 O.2       9 UNK        -0.5390 
     59 N          33.7669   29.3628    5.5465 N.am      10 UNK        -0.4215 
     60 CA         33.8526   27.9288    5.2689 C.3       10 UNK         0.0240 
     61 CB         33.5371   27.1439    6.5531 C.3       10 UNK        -0.1982 
     62 C          35.2178   27.5133    4.6997 C.2       10 UNK         0.4970 
     63 O          36.2349   28.1278    5.0301 O.2       10 UNK        -0.4916 
     64 N          35.2094   26.4505    3.8868 N.am      11 UNK        -0.4279 
     65 CA         36.4039   25.8648    3.2559 C.3       11 UNK         0.1003 
     66 C          37.3670   25.1275    4.2333 C.2       11 UNK         0.5709 
     67 N          36.9702   24.8277    5.4648 N.am      11 UNK        -0.7358 
     68 O          38.5003   24.8266    3.8658 O.2       11 UNK        -0.4999 
     69 C69        36.0358   24.9470    2.0593 C.3       12 UNK        -0.0954 
     70 S70        35.0363   25.7892    0.7846 S.3       12 UNK        -0.2268 
     71 C71        33.4900   24.8273    0.8143 C.3       12 UNK         0.0203 
     72 H72        24.9971   20.9933    4.0927 H         1 UNK         0.0888 
     73 H73        24.7305   20.5028    2.4187 H         1 UNK         0.0888 
     74 H74        24.9718   19.2803    3.6707 H         1 UNK         0.0888 
     75 H75        27.0600   21.8056    4.3758 H         1 UNK         0.3017 
     76 H76        29.4075   20.3781    3.6050 H         1 UNK         0.0873 
     77 H77        29.0165   21.9826    5.6525 H         1 UNK         0.0745 
     78 H78        29.3822   23.2820    4.5557 H         1 UNK         0.0745 
     79 H79        32.9837   23.4045    5.7887 H         1 UNK         0.0705 
     80 H80        31.3931   23.9049    6.3060 H         1 UNK         0.0705 
     81 H81        33.2832   23.3245    3.0902 H         1 UNK         0.1334 
     82 H82        31.8652   26.9531    1.2981 H         1 UNK         0.1417 
     83 H83        30.5210   25.8296    5.2113 H         1 UNK         0.1562 
     84 H84        30.6626   28.5305    2.6244 H         1 UNK         0.0748 
     85 H85        30.4285   28.2654    4.3326 H         1 UNK         0.0748 
     86 H86        28.7032   29.9148    3.1118 H         1 UNK         0.0940 
     87 H87        27.0372   29.4120    3.1896 H         1 UNK         0.0940 
     88 H88        28.7541   29.0142    0.6899 H         1 UNK         0.0703 
     89 H89        25.9066   28.5499    1.2268 H         1 UNK         0.3081 
     90 H90        24.7069   27.3601   -0.1730 H         1 UNK         0.0719 
     91 H91        25.1498   28.4984   -3.0006 H         1 UNK         0.0809 
     92 H92        23.6230   27.8900   -2.3650 H         1 UNK         0.0809 
     93 H93        24.3369   29.3447   -1.6907 H         1 UNK         0.0809 
     94 H94        26.6769   26.0887   -1.7972 H         1 UNK         0.2990 
     95 H95        24.8586   23.0293   -1.8669 H         1 UNK         0.0690 
     96 H96        26.0510   22.7971   -4.0282 H         1 UNK         0.0788 
     97 H97        26.3449   24.5357   -4.0890 H         1 UNK         0.0788 
     98 H98        24.7056   23.9111   -4.2007 H         1 UNK         0.0788 
     99 H99        27.6347   23.6134   -2.1593 H         1 UNK         0.2993 
    100 H100       28.9631   22.5744   -0.4091 H         1 UNK         0.0949 
    101 H101       28.7359   25.3698    0.8770 H         1 UNK         0.0767 
    102 H102       30.2389   24.5099    0.5545 H         1 UNK         0.0767 
    103 H103       29.2410   25.0590   -0.7796 H         1 UNK         0.0767 
    104 H104       27.5460   22.9250    2.0790 H         1 UNK         0.3013 
    105 H105       25.8092   30.8783    0.5443 H         1 UNK         0.3121 
    106 H106       25.3055   33.0038    0.1084 H         1 UNK         0.0774 
    107 H107       26.6175   34.1105   -1.6675 H         1 UNK         0.0815 
    108 H108       27.9902   33.0542   -1.3691 H         1 UNK         0.0815 
    109 H109       26.4888   32.3957   -2.0178 H         1 UNK         0.0815 
    110 H110       26.5187   32.6190    2.6262 H         1 UNK         0.2987 
    111 H111       27.2155   33.6303    4.4475 H         1 UNK         0.0949 
    112 H112       27.0044   36.0558    4.7341 H         1 UNK         0.0806 
    113 H113       26.9810   36.3173    2.9990 H         1 UNK         0.0806 
    114 H114       25.6458   35.4771    3.7876 H         1 UNK         0.0806 
    115 H115       29.2299   32.9775    2.1490 H         1 UNK         0.3010 
    116 H116       31.5799   34.5351    2.9829 H         1 UNK         0.0829 
    117 H117       31.2436   33.6984    0.5981 H         1 UNK         0.0813 
    118 H118       32.7515   33.1644    1.3226 H         1 UNK         0.0813 
    119 H119       31.4053   32.0474    1.1964 H         1 UNK         0.0813 
    120 H120       33.5374   33.3035    3.6712 H         1 UNK         0.3038 
    121 H121       33.0936   31.7753    6.0593 H         1 UNK         0.0769 
    122 H122       35.6004   31.6920    6.0950 H         1 UNK         0.0811 
    123 H123       35.0322   33.3232    5.7830 H         1 UNK         0.0811 
    124 H124       35.6586   32.3356    4.4614 H         1 UNK         0.0811 
    125 H125       33.7894   29.6367    6.5180 H         1 UNK         0.3204 
    126 H126       33.0953   27.6997    4.5221 H         1 UNK         0.0748 
    127 H127       33.5631   26.0685    6.3733 H         1 UNK         0.0771 
    128 H128       34.2559   27.3591    7.3449 H         1 UNK         0.0771 
    129 H129       32.5412   27.3812    6.9278 H         1 UNK         0.0771 
    130 H130       34.3305   26.0092    3.6545 H         1 UNK         0.2980 
    131 H131       36.9826   26.6979    2.8524 H         1 UNK         0.0545 
    132 H132       37.6073   24.3541    6.0856 H         1 UNK         0.3459 
    133 H133       36.0467   25.0738    5.7797 H         1 UNK         0.3459 
    134 H134       35.5156   24.0546    2.4094 H         1 UNK         0.0616 
    135 H135       36.9414   24.5889    1.5662 H         1 UNK         0.0616 
    136 H136       33.7175   23.7633    0.7319 H         1 UNK         0.0634 
    137 H137       32.9045   25.0802   -0.0709 H         1 UNK         0.0634 
@<TRIPOS>BOND
     1    1    2 1    
     2    1   72 1    
     3    1   73 1    
     4    1   74 1    
     5    2    3 2    
     6    2    4 am   BACKBONE|DICT|INTERRES
     7    4    5 1    
     8    4   75 1    
     9    5    6 1    
    10    5   35 1    
    11    5   76 1    
    12    6    7 1    
    13    6   77 1    
    14    6   78 1    
    15    7    8 1    
    16    8    9 1    
    17    8   79 1    
    18    8   80 1    
    19    9   10 ar   
    20    9   14 ar   
    21   10   11 ar   
    22   10   81 1    
    23   11   12 ar   
    24   11   71 1    
    25   12   13 ar   
    26   12   82 1    
    27   13   14 ar   
    28   13   15 1    
    29   14   83 1    
    30   15   16 1    
    31   15   84 1    
    32   15   85 1    
    33   16   17 1    
    34   17   18 1    
    35   17   86 1    
    36   17   87 1    
    37   18   19 1    
    38   18   37 1    
    39   18   88 1    
    40   19   20 am   BACKBONE|DICT|INTERRES
    41   19   89 1    
    42   20   21 2    
    43   20   22 1    
    44   22   23 1    
    45   22   24 1    
    46   22   90 1    
    47   23   91 1    
    48   23   92 1    
    49   23   93 1    
    50   24   25 am   BACKBONE|DICT|INTERRES
    51   24   94 1    
    52   25   26 2    
    53   25   27 1    
    54   27   28 1    
    55   27   29 1    
    56   27   95 1    
    57   28   96 1    
    58   28   97 1    
    59   28   98 1    
    60   29   30 am   BACKBONE|DICT|INTERRES
    61   29   99 1    
    62   30   31 2    
    63   30   32 1    
    64   32   33 1    
    65   32   34 1    
    66   32  100 1    
    67   33  101 1    
    68   33  102 1    
    69   33  103 1    
    70   34   35 am   BACKBONE|DICT|INTERRES
    71   34  104 1    
    72   35   36 2    
    73   37   38 2    
    74   37   39 am   BACKBONE|DICT|INTERRES
    75   39   40 1    
    76   39  105 1    
    77   40   41 1    
    78   40   42 1    
    79   40  106 1    
    80   41  107 1    
    81   41  108 1    
    82   41  109 1    
    83   42   43 2    
    84   42   44 am   BACKBONE|DICT|INTERRES
    85   44   45 1    
    86   44  110 1    
    87   45   46 1    
    88   45   47 1    
    89   45  111 1    
    90   46  112 1    
    91   46  113 1    
    92   46  114 1    
    93   47   48 2    
    94   47   49 am   BACKBONE|DICT|INTERRES
    95   49   50 1    
    96   49  115 1    
    97   50   51 1    
    98   50   52 1    
    99   50  116 1    
   100   51  117 1    
   101   51  118 1    
   102   51  119 1    
   103   52   53 2    
   104   52   54 am   BACKBONE|DICT|INTERRES
   105   54   55 1    
   106   54  120 1    
   107   55   56 1    
   108   55   57 1    
   109   55  121 1    
   110   56  122 1    
   111   56  123 1    
   112   56  124 1    
   113   57   58 2    
   114   57   59 am   BACKBONE|DICT|INTERRES
   115   59   60 1    
   116   59  125 1    
   117   60   61 1    
   118   60   62 1    
   119   60  126 1    
   120   61  127 1    
   121   61  128 1    
   122   61  129 1    
   123   62   63 2    
   124   62   64 am   BACKBONE|DICT|INTERRES
   125   64   65 1    
   126   64  130 1    
   127   65   66 1    
   128   65   69 1    
   129   65  131 1    
   130   66   67 am   BACKBONE|DICT|INTERRES
   131   66   68 2    
   132   67  132 1    
   133   67  133 1    
   134   69   70 1    
   135   69  134 1    
   136   69  135 1    
   137   70   71 1    
   138   71  136 1    
   139   71  137 1    
@<TRIPOS>SUBSTRUCTURE
     1 UNK         1 GROUP             0       ****    0 ROOT    
