@<TRIPOS>MOLECULE
3R136
137   139    1
SMALL
USER_CHARGES


@<TRIPOS>ATOM
      1 CA         27.2131   19.4465    2.0707 C.3       0 UNK        -0.1979 
      2 C          27.9975   19.8964    0.8469 C.2       0 UNK         0.4864 
      3 O          27.7582   19.3927   -0.2512 O.2       0 UNK        -0.5359 
      4 N          28.9331   20.8373    1.0325 N.am      1 UNK        -0.4318 
      5 CA         29.7733   21.4189   -0.0226 C.3       1 UNK         0.0824 
      6 C6         30.9392   22.2523    0.5637 C.3       12 UNK        -0.0944 
      7 S7         32.1173   21.2405    1.5214 S.3       12 UNK        -0.2672 
      8 C8         31.5407   21.4519    3.2425 C.3       12 UNK         0.0333 
      9 C9         31.5291   22.9008    3.7210 C.ar      12 UNK        -0.0807 
     10 C10        32.6536   23.7161    3.5498 C.ar      12 UNK        -0.0894 
     11 C11        32.6536   25.0320    4.0187 C.ar      12 UNK        -0.0804 
     12 C12        31.5278   25.5266    4.6784 C.ar      12 UNK        -0.0824 
     13 C13        30.3956   24.7279    4.8577 C.ar      12 UNK        -0.0762 
     14 C14        30.4009   23.4156    4.3727 C.ar      12 UNK        -0.0782 
     15 C15        29.1906   25.2694    5.6187 C.3       12 UNK         0.0230 
     16 S16        27.8789   25.9012    4.5211 S.3       12 UNK        -0.2608 
     17 C17        28.6390   27.4152    3.8427 C.3       12 UNK        -0.0989 
     18 CA         28.6683   27.3797    2.2924 C.3       5 UNK         0.0716 
     19 N          27.3300   27.5594    1.6996 N.am      5 UNK        -0.4135 
     20 C          26.6405   28.7135    1.6292 C.2       4 UNK         0.5031 
     21 O          27.0472   29.7759    2.1000 O.2       4 UNK        -0.5229 
     22 CA         25.3116   28.7367    0.8508 C.3       4 UNK         0.0329 
     23 CB         25.4425   29.6391   -0.3897 C.3       4 UNK        -0.2001 
     24 N          24.8638   27.4138    0.4178 N.am      4 UNK        -0.4303 
     25 C          24.1237   26.5747    1.1540 C.2       3 UNK         0.5044 
     26 O          23.6856   26.8430    2.2729 O.2       3 UNK        -0.5152 
     27 CA         23.8418   25.1892    0.5408 C.3       3 UNK         0.0319 
     28 CB         22.4881   25.1896   -0.1877 C.3       3 UNK        -0.2001 
     29 N          24.8878   24.7137   -0.3766 N.am      3 UNK        -0.4354 
     30 C          26.1600   24.4911   -0.0221 C.2       2 UNK         0.4964 
     31 O          26.6079   24.7161    1.1052 O.2       2 UNK        -0.5047 
     32 CA         27.1122   23.9820   -1.1051 C.3       2 UNK         0.0288 
     33 CB         27.8196   25.1609   -1.8020 C.3       2 UNK        -0.2113 
     34 N          28.0771   23.1242   -0.4306 N.am      2 UNK        -0.4145 
     35 C          28.9398   22.2745   -0.9970 C.2       1 UNK         0.5006 
     36 O          29.0783   22.1359   -2.2136 O.2       1 UNK        -0.5103 
     37 C          29.6989   28.3524    1.6696 C.2       5 UNK         0.5055 
     38 O          30.4071   29.0672    2.3825 O.2       5 UNK        -0.5220 
     39 N          29.6962   28.4012    0.3268 N.am      6 UNK        -0.4450 
     40 CA         30.4980   29.2747   -0.5410 C.3       6 UNK         0.0367 
     41 CB         31.9954   28.9183   -0.4315 C.3       6 UNK        -0.1929 
     42 C          30.2428   30.7832   -0.3327 C.2       6 UNK         0.5070 
     43 O          31.1088   31.5914   -0.6686 O.2       6 UNK        -0.5237 
     44 N          29.0849   31.1444    0.2446 N.am      7 UNK        -0.4739 
     45 CA         28.6059   32.4872    0.6163 C.3       7 UNK         0.0276 
     46 CB         28.4996   33.4130   -0.6108 C.3       7 UNK        -0.1927 
     47 C          29.3953   33.1585    1.7575 C.2       7 UNK         0.5013 
     48 O          28.7988   33.8783    2.5585 O.2       7 UNK        -0.5193 
     49 N          30.7052   32.8963    1.8336 N.am      8 UNK        -0.4253 
     50 CA         31.6181   33.3447    2.8854 C.3       8 UNK         0.0242 
     51 CB         33.0637   33.1592    2.3937 C.3       8 UNK        -0.2000 
     52 C          31.4154   32.6291    4.2339 C.2       8 UNK         0.4948 
     53 O          31.9789   33.0806    5.2315 O.2       8 UNK        -0.5275 
     54 N          30.6719   31.5112    4.2482 N.am      9 UNK        -0.4246 
     55 CA         30.3144   30.6501    5.3872 C.3       9 UNK         0.0261 
     56 CB         29.5624   31.4278    6.4844 C.3       9 UNK        -0.1959 
     57 C          31.4897   29.8479    5.9721 C.2       9 UNK         0.5033 
     58 O          31.3140   28.6737    6.2927 O.2       9 UNK        -0.5390 
     59 N          32.6633   30.4784    6.0780 N.am      10 UNK        -0.4215 
     60 CA         33.9359   29.8600    6.4552 C.3       10 UNK         0.0240 
     61 CB         34.7262   30.8602    7.3171 C.3       10 UNK        -0.1982 
     62 C          34.7660   29.4233    5.2313 C.2       10 UNK         0.4970 
     63 O          35.8536   28.8777    5.4192 O.2       10 UNK        -0.4916 
     64 N          34.2663   29.6903    4.0147 N.am      11 UNK        -0.4279 
     65 CA         34.9343   29.4632    2.7182 C.3       11 UNK         0.1003 
     66 C          36.1938   30.3512    2.4702 C.2       11 UNK         0.5709 
     67 N          36.4105   31.4211    3.2267 N.am      11 UNK        -0.7358 
     68 O          36.9708   30.0933    1.5538 O.2       11 UNK        -0.4999 
     69 C69        35.1867   27.9596    2.4023 C.3       12 UNK        -0.0954 
     70 S70        33.6496   26.9811    2.3592 S.3       12 UNK        -0.2268 
     71 C71        33.8661   25.9249    3.8204 C.3       12 UNK         0.0203 
     72 H72        26.1508   19.6428    1.9281 H         1 UNK         0.0888 
     73 H73        27.3440   18.3760    2.2272 H         1 UNK         0.0888 
     74 H74        27.5345   19.9625    2.9753 H         1 UNK         0.0888 
     75 H75        29.0860   21.2011    1.9604 H         1 UNK         0.3017 
     76 H76        30.1985   20.5954   -0.6010 H         1 UNK         0.0873 
     77 H77        30.5665   23.0746    1.1769 H         1 UNK         0.0745 
     78 H78        31.5099   22.7193   -0.2418 H         1 UNK         0.0745 
     79 H79        32.2006   20.8809    3.8969 H         1 UNK         0.0705 
     80 H80        30.5539   21.0002    3.3445 H         1 UNK         0.0705 
     81 H81        33.5289   23.3260    3.0485 H         1 UNK         0.1334 
     82 H82        31.5410   26.5387    5.0536 H         1 UNK         0.1417 
     83 H83        29.5297   22.7925    4.5228 H         1 UNK         0.1562 
     84 H84        29.4968   26.0602    6.3060 H         1 UNK         0.0748 
     85 H85        28.7711   24.4780    6.2415 H         1 UNK         0.0748 
     86 H86        29.6419   27.5204    4.2544 H         1 UNK         0.0940 
     87 H87        28.0805   28.2809    4.2009 H         1 UNK         0.0940 
     88 H88        29.0065   26.3861    1.9917 H         1 UNK         0.0703 
     89 H89        26.8999   26.7088    1.3529 H         1 UNK         0.3081 
     90 H90        24.5586   29.1742    1.5099 H         1 UNK         0.0719 
     91 H91        24.4987   29.7071   -0.9312 H         1 UNK         0.0809 
     92 H92        26.2011   29.2718   -1.0820 H         1 UNK         0.0809 
     93 H93        25.7227   30.6557   -0.1096 H         1 UNK         0.0809 
     94 H94        25.1590   27.1081   -0.4979 H         1 UNK         0.2990 
     95 H95        23.7832   24.4780    1.3677 H         1 UNK         0.0690 
     96 H96        22.2264   24.1920   -0.5410 H         1 UNK         0.0788 
     97 H97        22.4911   25.8616   -1.0469 H         1 UNK         0.0788 
     98 H98        21.6868   25.5151    0.4775 H         1 UNK         0.0788 
     99 H99        24.6019   24.5195   -1.3263 H         1 UNK         0.2993 
    100 H100       26.5547   23.3898   -1.8340 H         1 UNK         0.0949 
    101 H101       28.4197   25.7405   -1.1000 H         1 UNK         0.0767 
    102 H102       28.4807   24.8157   -2.5970 H         1 UNK         0.0767 
    103 H103       27.0976   25.8389   -2.2589 H         1 UNK         0.0767 
    104 H104       28.0155   23.1710    0.5793 H         1 UNK         0.3013 
    105 H105       29.0522   27.7928   -0.1576 H         1 UNK         0.3121 
    106 H106       30.1829   29.0595   -1.5630 H         1 UNK         0.0774 
    107 H107       32.5840   29.4483   -1.1811 H         1 UNK         0.0815 
    108 H108       32.3987   29.1840    0.5452 H         1 UNK         0.0815 
    109 H109       32.1641   27.8523   -0.5833 H         1 UNK         0.0815 
    110 H110       28.4855   30.3971    0.5734 H         1 UNK         0.2987 
    111 H111       27.5948   32.3366    0.9989 H         1 UNK         0.0949 
    112 H112       29.4762   33.6426   -1.0376 H         1 UNK         0.0806 
    113 H113       27.8872   32.9650   -1.3933 H         1 UNK         0.0806 
    114 H114       28.0358   34.3625   -0.3401 H         1 UNK         0.0806 
    115 H115       31.1005   32.3436    1.0775 H         1 UNK         0.3010 
    116 H116       31.4446   34.4092    3.0565 H         1 UNK         0.0829 
    117 H117       33.2516   33.7417    1.4915 H         1 UNK         0.0813 
    118 H118       33.7827   33.4901    3.1445 H         1 UNK         0.0813 
    119 H119       33.2818   32.1157    2.1668 H         1 UNK         0.0813 
    120 H120       30.3374   31.1689    3.3550 H         1 UNK         0.3038 
    121 H121       29.6167   29.9195    4.9794 H         1 UNK         0.0769 
    122 H122       30.1966   32.1685    6.9721 H         1 UNK         0.0811 
    123 H123       28.6937   31.9452    6.0773 H         1 UNK         0.0811 
    124 H124       29.2028   30.7509    7.2604 H         1 UNK         0.0811 
    125 H125       32.6732   31.4692    5.8405 H         1 UNK         0.3204 
    126 H126       33.7485   28.9662    7.0540 H         1 UNK         0.0748 
    127 H127       35.6700   30.4299    7.6552 H         1 UNK         0.0771 
    128 H128       34.9608   31.7721    6.7665 H         1 UNK         0.0771 
    129 H129       34.1651   31.1428    8.2082 H         1 UNK         0.0771 
    130 H130       33.3501   30.1074    3.9626 H         1 UNK         0.2980 
    131 H131       34.2221   29.8204    1.9748 H         1 UNK         0.0545 
    132 H132       35.7874   31.6532    3.9817 H         1 UNK         0.3459 
    133 H133       37.2210   31.9922    3.0468 H         1 UNK         0.3459 
    134 H134       35.6475   27.8482    1.4195 H         1 UNK         0.0616 
    135 H135       35.8914   27.5247    3.1123 H         1 UNK         0.0616 
    136 H136       34.0163   26.5479    4.7030 H         1 UNK         0.0634 
    137 H137       34.7692   25.3237    3.7038 H         1 UNK         0.0634 
@<TRIPOS>BOND
     1    1    2 1    
     2    1   72 1    
     3    1   73 1    
     4    1   74 1    
     5    2    3 2    
     6    2    4 am   BACKBONE|DICT|INTERRES
     7    4    5 1    
     8    4   75 1    
     9    5    6 1    
    10    5   35 1    
    11    5   76 1    
    12    6    7 1    
    13    6   77 1    
    14    6   78 1    
    15    7    8 1    
    16    8    9 1    
    17    8   79 1    
    18    8   80 1    
    19    9   10 ar   
    20    9   14 ar   
    21   10   11 ar   
    22   10   81 1    
    23   11   12 ar   
    24   11   71 1    
    25   12   13 ar   
    26   12   82 1    
    27   13   14 ar   
    28   13   15 1    
    29   14   83 1    
    30   15   16 1    
    31   15   84 1    
    32   15   85 1    
    33   16   17 1    
    34   17   18 1    
    35   17   86 1    
    36   17   87 1    
    37   18   19 1    
    38   18   37 1    
    39   18   88 1    
    40   19   20 am   BACKBONE|DICT|INTERRES
    41   19   89 1    
    42   20   21 2    
    43   20   22 1    
    44   22   23 1    
    45   22   24 1    
    46   22   90 1    
    47   23   91 1    
    48   23   92 1    
    49   23   93 1    
    50   24   25 am   BACKBONE|DICT|INTERRES
    51   24   94 1    
    52   25   26 2    
    53   25   27 1    
    54   27   28 1    
    55   27   29 1    
    56   27   95 1    
    57   28   96 1    
    58   28   97 1    
    59   28   98 1    
    60   29   30 am   BACKBONE|DICT|INTERRES
    61   29   99 1    
    62   30   31 2    
    63   30   32 1    
    64   32   33 1    
    65   32   34 1    
    66   32  100 1    
    67   33  101 1    
    68   33  102 1    
    69   33  103 1    
    70   34   35 am   BACKBONE|DICT|INTERRES
    71   34  104 1    
    72   35   36 2    
    73   37   38 2    
    74   37   39 am   BACKBONE|DICT|INTERRES
    75   39   40 1    
    76   39  105 1    
    77   40   41 1    
    78   40   42 1    
    79   40  106 1    
    80   41  107 1    
    81   41  108 1    
    82   41  109 1    
    83   42   43 2    
    84   42   44 am   BACKBONE|DICT|INTERRES
    85   44   45 1    
    86   44  110 1    
    87   45   46 1    
    88   45   47 1    
    89   45  111 1    
    90   46  112 1    
    91   46  113 1    
    92   46  114 1    
    93   47   48 2    
    94   47   49 am   BACKBONE|DICT|INTERRES
    95   49   50 1    
    96   49  115 1    
    97   50   51 1    
    98   50   52 1    
    99   50  116 1    
   100   51  117 1    
   101   51  118 1    
   102   51  119 1    
   103   52   53 2    
   104   52   54 am   BACKBONE|DICT|INTERRES
   105   54   55 1    
   106   54  120 1    
   107   55   56 1    
   108   55   57 1    
   109   55  121 1    
   110   56  122 1    
   111   56  123 1    
   112   56  124 1    
   113   57   58 2    
   114   57   59 am   BACKBONE|DICT|INTERRES
   115   59   60 1    
   116   59  125 1    
   117   60   61 1    
   118   60   62 1    
   119   60  126 1    
   120   61  127 1    
   121   61  128 1    
   122   61  129 1    
   123   62   63 2    
   124   62   64 am   BACKBONE|DICT|INTERRES
   125   64   65 1    
   126   64  130 1    
   127   65   66 1    
   128   65   69 1    
   129   65  131 1    
   130   66   67 am   BACKBONE|DICT|INTERRES
   131   66   68 2    
   132   67  132 1    
   133   67  133 1    
   134   69   70 1    
   135   69  134 1    
   136   69  135 1    
   137   70   71 1    
   138   71  136 1    
   139   71  137 1    
@<TRIPOS>SUBSTRUCTURE
     1 UNK         1 GROUP             0       ****    0 ROOT    
