@<TRIPOS>MOLECULE
3R136
137   139    1
SMALL
USER_CHARGES


@<TRIPOS>ATOM
      1 CA         28.5112   22.8809   -2.4504 C.3       0 UNK        -0.1979 
      2 C          28.3809   22.9693   -0.9389 C.2       0 UNK         0.4864 
      3 O          27.9356   23.9923   -0.4185 O.2       0 UNK        -0.5359 
      4 N          28.7537   21.9057   -0.2145 N.am      1 UNK        -0.4318 
      5 CA         28.7636   21.8531    1.2566 C.3       1 UNK         0.0824 
      6 C6         29.6438   20.7024    1.8004 C.3       12 UNK        -0.0944 
      7 S7         31.3752   20.8129    1.2190 S.3       12 UNK        -0.2672 
      8 C8         32.1036   22.0029    2.4031 C.3       12 UNK         0.0333 
      9 C9         32.5744   23.3123    1.7664 C.ar      12 UNK        -0.0807 
     10 C10        33.7501   23.9184    2.2229 C.ar      12 UNK        -0.0894 
     11 C11        34.1742   25.1412    1.6936 C.ar      12 UNK        -0.0804 
     12 C12        33.4296   25.7471    0.6785 C.ar      12 UNK        -0.0824 
     13 C13        32.2360   25.1743    0.2266 C.ar      12 UNK        -0.0762 
     14 C14        31.8292   23.9531    0.7699 C.ar      12 UNK        -0.0782 
     15 C15        31.3492   25.8181   -0.8414 C.3       12 UNK         0.0230 
     16 S16        31.6829   27.5701   -1.2515 S.3       12 UNK        -0.2608 
     17 C17        31.4338   28.4772    0.3171 C.3       12 UNK        -0.0989 
     18 CA         29.9342   28.7069    0.6638 C.3       5 UNK         0.0716 
     19 N          29.2883   27.5076    1.2153 N.am      5 UNK        -0.4135 
     20 C          29.5701   26.9006    2.3806 C.2       4 UNK         0.5031 
     21 O          30.4720   27.2494    3.1413 O.2       4 UNK        -0.5229 
     22 CA         28.7006   25.6951    2.7777 C.3       4 UNK         0.0329 
     23 CB         28.3352   25.7096    4.2781 C.3       4 UNK        -0.2001 
     24 N          27.4996   25.5143    1.9522 N.am      4 UNK        -0.4303 
     25 C          26.4143   26.3007    1.8808 C.2       3 UNK         0.5044 
     26 O          26.3104   27.3840    2.4571 O.2       3 UNK        -0.5152 
     27 CA         25.2634   25.8039    0.9885 C.3       3 UNK         0.0319 
     28 CB         25.3617   26.4373   -0.4090 C.3       3 UNK        -0.2001 
     29 N          25.2697   24.3428    0.8577 N.am      3 UNK        -0.4354 
     30 C          24.6454   23.4979    1.6933 C.2       2 UNK         0.4964 
     31 O          23.8987   23.8599    2.6028 O.2       2 UNK        -0.5047 
     32 CA         24.9123   21.9920    1.4949 C.3       2 UNK         0.0288 
     33 CB         23.9543   21.4051    0.4455 C.3       2 UNK        -0.2113 
     34 N          26.2966   21.7156    1.1009 N.am      2 UNK        -0.4145 
     35 C          27.3599   21.8791    1.9033 C.2       1 UNK         0.5006 
     36 O          27.2663   22.1057    3.1100 O.2       1 UNK        -0.5103 
     37 C          29.6981   29.9604    1.5434 C.2       5 UNK         0.5055 
     38 O          30.4516   30.9297    1.4377 O.2       5 UNK        -0.5220 
     39 N          28.6331   29.9506    2.3636 N.am      6 UNK        -0.4450 
     40 CA         28.3212   30.9471    3.3965 C.3       6 UNK         0.0367 
     41 CB         27.0692   30.4941    4.1635 C.3       6 UNK        -0.1929 
     42 C          28.1705   32.4014    2.9136 C.2       6 UNK         0.5070 
     43 O          28.3236   33.3170    3.7221 O.2       6 UNK        -0.5237 
     44 N          27.9055   32.5983    1.6153 N.am      7 UNK        -0.4739 
     45 CA         27.9089   33.9069    0.9553 C.3       7 UNK         0.0276 
     46 CB         27.2832   33.7660   -0.4418 C.3       7 UNK        -0.1927 
     47 C          29.3115   34.5416    0.8551 C.2       7 UNK         0.5013 
     48 O          29.4032   35.7666    0.7644 O.2       7 UNK        -0.5193 
     49 N          30.3646   33.7125    0.8682 N.am      8 UNK        -0.4253 
     50 CA         31.7664   34.1266    0.8525 C.3       8 UNK         0.0242 
     51 CB         32.5269   33.3309   -0.2237 C.3       8 UNK        -0.2000 
     52 C          32.3902   33.9225    2.2396 C.2       8 UNK         0.4948 
     53 O          32.8737   34.8884    2.8317 O.2       8 UNK        -0.5275 
     54 N          32.3538   32.6811    2.7381 N.am      9 UNK        -0.4246 
     55 CA         32.8638   32.2595    4.0401 C.3       9 UNK         0.0261 
     56 CB         34.4052   32.2700    4.0663 C.3       9 UNK        -0.1959 
     57 C          32.3291   30.8502    4.2986 C.2       9 UNK         0.5033 
     58 O          32.5161   29.9764    3.4511 O.2       9 UNK        -0.5390 
     59 N          31.6747   30.6472    5.4480 N.am      10 UNK        -0.4215 
     60 CA         30.9746   29.4110    5.8129 C.3       10 UNK         0.0240 
     61 CB         29.9115   29.7389    6.8797 C.3       10 UNK        -0.1982 
     62 C          31.9204   28.2708    6.2465 C.2       10 UNK         0.4970 
     63 O          31.7740   27.7440    7.3516 O.2       10 UNK        -0.4916 
     64 N          32.8780   27.9130    5.3836 N.am      11 UNK        -0.4279 
     65 CA         33.7829   26.7682    5.5696 C.3       11 UNK         0.1003 
     66 C          33.1343   25.3806    5.3057 C.2       11 UNK         0.5709 
     67 N          31.9647   25.2959    4.6854 N.am      11 UNK        -0.7358 
     68 O          33.6946   24.3595    5.6980 O.2       11 UNK        -0.4999 
     69 C69        35.1401   26.9465    4.8361 C.3       12 UNK        -0.0954 
     70 S70        35.0280   27.3896    3.0675 S.3       12 UNK        -0.2268 
     71 C71        35.4286   25.8273    2.2137 C.3       12 UNK         0.0203 
     72 H72        27.5363   23.0121   -2.9187 H         1 UNK         0.0888 
     73 H73        29.1724   23.6672   -2.8134 H         1 UNK         0.0888 
     74 H74        28.9170   21.9210   -2.7689 H         1 UNK         0.0888 
     75 H75        29.1168   21.0860   -0.6815 H         1 UNK         0.3017 
     76 H76        29.2225   22.7780    1.6018 H         1 UNK         0.0873 
     77 H77        29.2396   19.7384    1.4862 H         1 UNK         0.0745 
     78 H78        29.6413   20.6863    2.8922 H         1 UNK         0.0745 
     79 H79        31.3877   22.2408    3.1903 H         1 UNK         0.0705 
     80 H80        32.9409   21.5066    2.8961 H         1 UNK         0.0705 
     81 H81        34.3236   23.4512    3.0119 H         1 UNK         0.1334 
     82 H82        33.7777   26.6847    0.2698 H         1 UNK         0.1417 
     83 H83        30.9221   23.5020    0.4046 H         1 UNK         0.1562 
     84 H84        30.3022   25.7232   -0.5531 H         1 UNK         0.0748 
     85 H85        31.4575   25.2384   -1.7589 H         1 UNK         0.0748 
     86 H86        31.9558   29.4252    0.1783 H         1 UNK         0.0940 
     87 H87        31.9594   27.9915    1.1393 H         1 UNK         0.0940 
     88 H88        29.4088   28.9295   -0.2661 H         1 UNK         0.0703 
     89 H89        28.5303   27.1283    0.6675 H         1 UNK         0.3081 
     90 H90        29.3262   24.8204    2.6043 H         1 UNK         0.0719 
     91 H91        27.7677   26.5999    4.5500 H         1 UNK         0.0809 
     92 H92        27.7405   24.8363    4.5468 H         1 UNK         0.0809 
     93 H93        29.2256   25.6959    4.9063 H         1 UNK         0.0809 
     94 H94        27.5324   24.7313    1.3060 H         1 UNK         0.2990 
     95 H95        24.3253   26.1278    1.4443 H         1 UNK         0.0690 
     96 H96        24.5236   26.1368   -1.0379 H         1 UNK         0.0788 
     97 H97        26.2821   26.1537   -0.9212 H         1 UNK         0.0788 
     98 H98        25.3440   27.5263   -0.3463 H         1 UNK         0.0788 
     99 H99        25.8939   23.9649    0.1553 H         1 UNK         0.2993 
    100 H100       24.7227   21.4941    2.4487 H         1 UNK         0.0949 
    101 H101       24.0855   20.3271    0.3479 H         1 UNK         0.0767 
    102 H102       22.9147   21.5791    0.7272 H         1 UNK         0.0767 
    103 H103       24.1048   21.8529   -0.5378 H         1 UNK         0.0767 
    104 H104       26.4637   21.5089    0.1270 H         1 UNK         0.3013 
    105 H105       28.0419   29.1294    2.3546 H         1 UNK         0.3121 
    106 H106       29.1603   30.9491    4.0918 H         1 UNK         0.0774 
    107 H107       26.8227   31.1945    4.9628 H         1 UNK         0.0815 
    108 H108       26.1998   30.4248    3.5085 H         1 UNK         0.0815 
    109 H109       27.2187   29.5178    4.6256 H         1 UNK         0.0815 
    110 H110       27.7893   31.7869    1.0260 H         1 UNK         0.2987 
    111 H111       27.2866   34.5850    1.5438 H         1 UNK         0.0949 
    112 H112       27.8567   33.0879   -1.0751 H         1 UNK         0.0806 
    113 H113       26.2613   33.3905   -0.3839 H         1 UNK         0.0806 
    114 H114       27.2433   34.7305   -0.9500 H         1 UNK         0.0806 
    115 H115       30.1985   32.7169    0.9982 H         1 UNK         0.3010 
    116 H116       31.8482   35.1869    0.6035 H         1 UNK         0.0829 
    117 H117       32.1326   33.5406   -1.2181 H         1 UNK         0.0813 
    118 H118       33.5845   33.5979   -0.2316 H         1 UNK         0.0813 
    119 H119       32.4623   32.2540   -0.0623 H         1 UNK         0.0813 
    120 H120       31.8927   31.9420    2.2084 H         1 UNK         0.3038 
    121 H121       32.4824   32.9417    4.8026 H         1 UNK         0.0769 
    122 H122       34.7811   31.9028    5.0221 H         1 UNK         0.0811 
    123 H123       34.8044   33.2746    3.9281 H         1 UNK         0.0811 
    124 H124       34.8230   31.6331    3.2853 H         1 UNK         0.0811 
    125 H125       31.6154   31.4052    6.1129 H         1 UNK         0.3204 
    126 H126       30.4411   29.0543    4.9312 H         1 UNK         0.0748 
    127 H127       29.3186   28.8561    7.1234 H         1 UNK         0.0771 
    128 H128       30.3648   30.0944    7.8060 H         1 UNK         0.0771 
    129 H129       29.2166   30.5033    6.5321 H         1 UNK         0.0771 
    130 H130       32.9172   28.3887    4.4850 H         1 UNK         0.2980 
    131 H131       34.0337   26.7445    6.6319 H         1 UNK         0.0545 
    132 H132       31.5298   26.1213    4.2832 H         1 UNK         0.3459 
    133 H133       31.5628   24.3878    4.5334 H         1 UNK         0.3459 
    134 H134       35.7713   26.0657    4.9632 H         1 UNK         0.0616 
    135 H135       35.6885   27.7563    5.3195 H         1 UNK         0.0616 
    136 H136       35.9982   25.1660    2.8677 H         1 UNK         0.0634 
    137 H137       36.0808   26.0527    1.3688 H         1 UNK         0.0634 
@<TRIPOS>BOND
     1    1    2 1    
     2    1   72 1    
     3    1   73 1    
     4    1   74 1    
     5    2    3 2    
     6    2    4 am   BACKBONE|DICT|INTERRES
     7    4    5 1    
     8    4   75 1    
     9    5    6 1    
    10    5   35 1    
    11    5   76 1    
    12    6    7 1    
    13    6   77 1    
    14    6   78 1    
    15    7    8 1    
    16    8    9 1    
    17    8   79 1    
    18    8   80 1    
    19    9   10 ar   
    20    9   14 ar   
    21   10   11 ar   
    22   10   81 1    
    23   11   12 ar   
    24   11   71 1    
    25   12   13 ar   
    26   12   82 1    
    27   13   14 ar   
    28   13   15 1    
    29   14   83 1    
    30   15   16 1    
    31   15   84 1    
    32   15   85 1    
    33   16   17 1    
    34   17   18 1    
    35   17   86 1    
    36   17   87 1    
    37   18   19 1    
    38   18   37 1    
    39   18   88 1    
    40   19   20 am   BACKBONE|DICT|INTERRES
    41   19   89 1    
    42   20   21 2    
    43   20   22 1    
    44   22   23 1    
    45   22   24 1    
    46   22   90 1    
    47   23   91 1    
    48   23   92 1    
    49   23   93 1    
    50   24   25 am   BACKBONE|DICT|INTERRES
    51   24   94 1    
    52   25   26 2    
    53   25   27 1    
    54   27   28 1    
    55   27   29 1    
    56   27   95 1    
    57   28   96 1    
    58   28   97 1    
    59   28   98 1    
    60   29   30 am   BACKBONE|DICT|INTERRES
    61   29   99 1    
    62   30   31 2    
    63   30   32 1    
    64   32   33 1    
    65   32   34 1    
    66   32  100 1    
    67   33  101 1    
    68   33  102 1    
    69   33  103 1    
    70   34   35 am   BACKBONE|DICT|INTERRES
    71   34  104 1    
    72   35   36 2    
    73   37   38 2    
    74   37   39 am   BACKBONE|DICT|INTERRES
    75   39   40 1    
    76   39  105 1    
    77   40   41 1    
    78   40   42 1    
    79   40  106 1    
    80   41  107 1    
    81   41  108 1    
    82   41  109 1    
    83   42   43 2    
    84   42   44 am   BACKBONE|DICT|INTERRES
    85   44   45 1    
    86   44  110 1    
    87   45   46 1    
    88   45   47 1    
    89   45  111 1    
    90   46  112 1    
    91   46  113 1    
    92   46  114 1    
    93   47   48 2    
    94   47   49 am   BACKBONE|DICT|INTERRES
    95   49   50 1    
    96   49  115 1    
    97   50   51 1    
    98   50   52 1    
    99   50  116 1    
   100   51  117 1    
   101   51  118 1    
   102   51  119 1    
   103   52   53 2    
   104   52   54 am   BACKBONE|DICT|INTERRES
   105   54   55 1    
   106   54  120 1    
   107   55   56 1    
   108   55   57 1    
   109   55  121 1    
   110   56  122 1    
   111   56  123 1    
   112   56  124 1    
   113   57   58 2    
   114   57   59 am   BACKBONE|DICT|INTERRES
   115   59   60 1    
   116   59  125 1    
   117   60   61 1    
   118   60   62 1    
   119   60  126 1    
   120   61  127 1    
   121   61  128 1    
   122   61  129 1    
   123   62   63 2    
   124   62   64 am   BACKBONE|DICT|INTERRES
   125   64   65 1    
   126   64  130 1    
   127   65   66 1    
   128   65   69 1    
   129   65  131 1    
   130   66   67 am   BACKBONE|DICT|INTERRES
   131   66   68 2    
   132   67  132 1    
   133   67  133 1    
   134   69   70 1    
   135   69  134 1    
   136   69  135 1    
   137   70   71 1    
   138   71  136 1    
   139   71  137 1    
@<TRIPOS>SUBSTRUCTURE
     1 UNK         1 GROUP             0       ****    0 ROOT    
