@<TRIPOS>MOLECULE
3R136
137   139    1
SMALL
USER_CHARGES


@<TRIPOS>ATOM
      1 CA         28.6280   21.0121   -3.0311 C.3       0 UNK        -0.1979 
      2 C          28.6410   22.1545   -2.0262 C.2       0 UNK         0.4864 
      3 O          27.6209   22.4092   -1.3868 O.2       0 UNK        -0.5359 
      4 N          29.7886   22.8370   -1.8925 N.am      1 UNK        -0.4318 
      5 CA         30.0393   23.9636   -0.9788 C.3       1 UNK         0.0824 
      6 C6         30.0012   23.5669    0.5240 C.3       12 UNK        -0.0944 
      7 S7         31.2151   22.2674    0.9198 S.3       12 UNK        -0.2672 
      8 C8         30.5758   21.6587    2.5133 C.3       12 UNK         0.0333 
      9 C9         30.7408   22.6724    3.6397 C.ar      12 UNK        -0.0807 
     10 C10        32.0092   23.1659    3.9654 C.ar      12 UNK        -0.0894 
     11 C11        32.1726   24.0752    5.0143 C.ar      12 UNK        -0.0804 
     12 C12        31.0549   24.4824    5.7467 C.ar      12 UNK        -0.0824 
     13 C13        29.7811   24.0060    5.4274 C.ar      12 UNK        -0.0762 
     14 C14        29.6295   23.0941    4.3777 C.ar      12 UNK        -0.0782 
     15 C15        28.5817   24.4798    6.2339 C.3       12 UNK         0.0230 
     16 S16        28.0937   26.1694    5.7596 S.3       12 UNK        -0.2608 
     17 C17        26.8860   25.8556    4.4290 C.3       12 UNK        -0.0989 
     18 CA         27.5143   25.7227    3.0206 C.3       5 UNK         0.0716 
     19 N          26.5221   25.3490    2.0245 N.am      5 UNK        -0.4135 
     20 C          26.1213   24.1066    1.7476 C.2       4 UNK         0.5031 
     21 O          26.5224   23.1180    2.3643 O.2       4 UNK        -0.5229 
     22 CA         25.1096   23.9020    0.6001 C.3       4 UNK         0.0329 
     23 CB         23.7071   23.5834    1.1558 C.3       4 UNK        -0.2001 
     24 N          25.0497   24.9728   -0.4094 N.am      4 UNK        -0.4303 
     25 C          24.6241   26.2376   -0.2803 C.2       3 UNK         0.5044 
     26 O          24.2413   26.7222    0.7851 O.2       3 UNK        -0.5152 
     27 CA         24.6760   27.1135   -1.5492 C.3       3 UNK         0.0319 
     28 CB         24.1131   28.5285   -1.3172 C.3       3 UNK        -0.2001 
     29 N          26.0420   27.2300   -2.0633 N.am      3 UNK        -0.4354 
     30 C          26.6751   26.3049   -2.7954 C.2       2 UNK         0.4964 
     31 O          26.1428   25.2580   -3.1692 O.2       2 UNK        -0.5047 
     32 CA         28.1536   26.5586   -3.1500 C.3       2 UNK         0.0288 
     33 CB         28.6787   27.9590   -2.7502 C.3       2 UNK        -0.2113 
     34 N          29.0100   25.5027   -2.5956 N.am      2 UNK        -0.4145 
     35 C          29.1379   25.1765   -1.2986 C.2       1 UNK         0.5006 
     36 O          28.5776   25.7834   -0.3867 O.2       1 UNK        -0.5103 
     37 C          28.1794   27.0102    2.5208 C.2       5 UNK         0.5055 
     38 O          27.4767   27.9652    2.1771 O.2       5 UNK        -0.5220 
     39 N          29.5176   27.0188    2.4838 N.am      6 UNK        -0.4450 
     40 CA         30.3344   28.0960    1.9227 C.3       6 UNK         0.0367 
     41 CB         31.6547   27.4992    1.4044 C.3       6 UNK        -0.1929 
     42 C          30.5472   29.2393    2.9317 C.2       6 UNK         0.5070 
     43 O          31.6802   29.6598    3.1673 O.2       6 UNK        -0.5237 
     44 N          29.4466   29.7296    3.5154 N.am      7 UNK        -0.4739 
     45 CA         29.4147   30.7748    4.5449 C.3       7 UNK         0.0276 
     46 CB         27.9874   30.8751    5.1055 C.3       7 UNK        -0.1927 
     47 C          29.9118   32.1536    4.0697 C.2       7 UNK         0.5013 
     48 O          30.2282   33.0024    4.9051 O.2       7 UNK        -0.5193 
     49 N          29.9880   32.3537    2.7472 N.am      8 UNK        -0.4253 
     50 CA         30.5655   33.5217    2.0856 C.3       8 UNK         0.0242 
     51 CB         30.1172   33.5288    0.6123 C.3       8 UNK        -0.2000 
     52 C          32.0994   33.5390    2.2297 C.2       8 UNK         0.4948 
     53 O          32.8140   33.1871    1.2896 O.2       8 UNK        -0.5275 
     54 N          32.5707   33.9151    3.4255 N.am      9 UNK        -0.4246 
     55 CA         33.9600   34.1274    3.8589 C.3       9 UNK         0.0261 
     56 CB         34.6370   35.2340    3.0261 C.3       9 UNK        -0.1959 
     57 C          34.8540   32.8736    3.9266 C.2       9 UNK         0.5033 
     58 O          35.7405   32.8380    4.7806 O.2       9 UNK        -0.5390 
     59 N          34.6322   31.8841    3.0514 N.am      10 UNK        -0.4215 
     60 CA         35.4090   30.6434    2.9602 C.3       10 UNK         0.0240 
     61 CB         35.0019   29.8653    1.6984 C.3       10 UNK        -0.1982 
     62 C          35.2970   29.7725    4.2230 C.2       10 UNK         0.4970 
     63 O          36.3178   29.4866    4.8508 O.2       10 UNK        -0.4916 
     64 N          34.0638   29.3974    4.5770 N.am      11 UNK        -0.4279 
     65 CA         33.7122   28.6747    5.8091 C.3       11 UNK         0.1003 
     66 C          32.9426   29.5678    6.8255 C.2       11 UNK         0.5709 
     67 N          32.6958   30.8424    6.5443 N.am      11 UNK        -0.7358 
     68 O          32.5799   29.1028    7.9034 O.2       11 UNK        -0.4999 
     69 C69        32.9355   27.3661    5.5040 C.3       12 UNK        -0.0954 
     70 S70        33.9082   26.1785    4.5149 S.3       12 UNK        -0.2268 
     71 C71        33.5565   24.6058    5.3623 C.3       12 UNK         0.0203 
     72 H72        28.3861   20.0756   -2.5293 H         1 UNK         0.0888 
     73 H73        27.8731   21.1945   -3.7954 H         1 UNK         0.0888 
     74 H74        29.5911   20.8918   -3.5268 H         1 UNK         0.0888 
     75 H75        30.5854   22.5557   -2.4470 H         1 UNK         0.3017 
     76 H76        31.0541   24.3027   -1.1930 H         1 UNK         0.0873 
     77 H77        29.0032   23.2292    0.8086 H         1 UNK         0.0745 
     78 H78        30.2268   24.4266    1.1568 H         1 UNK         0.0745 
     79 H79        31.1142   20.7487    2.7810 H         1 UNK         0.0705 
     80 H80        29.5298   21.3719    2.3912 H         1 UNK         0.0705 
     81 H81        32.8709   22.8411    3.3980 H         1 UNK         0.1334 
     82 H82        31.1691   25.1783    6.5656 H         1 UNK         0.1417 
     83 H83        28.6452   22.7162    4.1332 H         1 UNK         0.1562 
     84 H84        27.7405   23.7930    6.1291 H         1 UNK         0.0748 
     85 H85        28.8404   24.4773    7.2938 H         1 UNK         0.0748 
     86 H86        26.1534   26.6651    4.4384 H         1 UNK         0.0940 
     87 H87        26.3238   24.9532    4.6736 H         1 UNK         0.0940 
     88 H88        28.2747   24.9431    3.0371 H         1 UNK         0.0703 
     89 H89        26.1351   26.1203    1.4917 H         1 UNK         0.3081 
     90 H90        25.4501   23.0186    0.0588 H         1 UNK         0.0719 
     91 H91        23.7381   22.7120    1.8112 H         1 UNK         0.0809 
     92 H92        23.3016   24.4103    1.7395 H         1 UNK         0.0809 
     93 H93        23.0034   23.3598    0.3541 H         1 UNK         0.0809 
     94 H94        25.4130   24.7158   -1.3226 H         1 UNK         0.2990 
     95 H95        24.0512   26.6288   -2.3027 H         1 UNK         0.0690 
     96 H96        24.1117   29.1110   -2.2386 H         1 UNK         0.0788 
     97 H97        24.6924   29.0773   -0.5734 H         1 UNK         0.0788 
     98 H98        23.0826   28.4854   -0.9617 H         1 UNK         0.0788 
     99 H99        26.5727   28.0309   -1.7525 H         1 UNK         0.2993 
    100 H100       28.2206   26.4781   -4.2361 H         1 UNK         0.0949 
    101 H101       28.0931   28.7494   -3.2218 H         1 UNK         0.0767 
    102 H102       28.6546   28.1232   -1.6722 H         1 UNK         0.0767 
    103 H103       29.7102   28.0933   -3.0760 H         1 UNK         0.0767 
    104 H104       29.4747   24.9169   -3.2749 H         1 UNK         0.3013 
    105 H105       30.0191   26.2214    2.8477 H         1 UNK         0.3121 
    106 H106       29.8103   28.5203    1.0634 H         1 UNK         0.0774 
    107 H107       32.2417   28.2532    0.8806 H         1 UNK         0.0815 
    108 H108       32.2686   27.1080    2.2155 H         1 UNK         0.0815 
    109 H109       31.4740   26.6893    0.6977 H         1 UNK         0.0815 
    110 H110       28.5576   29.3234    3.2403 H         1 UNK         0.2987 
    111 H111       30.0784   30.4600    5.3527 H         1 UNK         0.0949 
    112 H112       27.9304   31.6199    5.9007 H         1 UNK         0.0806 
    113 H113       27.6609   29.9252    5.5299 H         1 UNK         0.0806 
    114 H114       27.2711   31.1634    4.3353 H         1 UNK         0.0806 
    115 H115       29.7255   31.5831    2.1510 H         1 UNK         0.3010 
    116 H116       30.1729   34.4237    2.5602 H         1 UNK         0.0829 
    117 H117       30.4450   32.6330    0.0831 H         1 UNK         0.0813 
    118 H118       29.0321   33.5900    0.5279 H         1 UNK         0.0813 
    119 H119       30.5313   34.3886    0.0839 H         1 UNK         0.0813 
    120 H120       31.8727   34.0484    4.1510 H         1 UNK         0.3038 
    121 H121       33.8834   34.4960    4.8832 H         1 UNK         0.0769 
    122 H122       35.6297   35.4627    3.4164 H         1 UNK         0.0811 
    123 H123       34.0599   36.1583    3.0498 H         1 UNK         0.0811 
    124 H124       34.7605   34.9415    1.9828 H         1 UNK         0.0811 
    125 H125       33.9131   32.0419    2.3498 H         1 UNK         0.3204 
    126 H126       36.4590   30.9232    2.8521 H         1 UNK         0.0748 
    127 H127       35.5339   28.9151    1.6331 H         1 UNK         0.0771 
    128 H128       33.9354   29.6454    1.6880 H         1 UNK         0.0771 
    129 H129       35.2329   30.4300    0.7950 H         1 UNK         0.0771 
    130 H130       33.2719   29.6375    3.9813 H         1 UNK         0.2980 
    131 H131       34.6261   28.3889    6.3323 H         1 UNK         0.0545 
    132 H132       33.0064   31.2384    5.6735 H         1 UNK         0.3459 
    133 H133       32.2074   31.4112    7.2172 H         1 UNK         0.3459 
    134 H134       32.6543   26.8845    6.4405 H         1 UNK         0.0616 
    135 H135       32.0038   27.5768    4.9777 H         1 UNK         0.0616 
    136 H136       33.6598   24.7309    6.4411 H         1 UNK         0.0634 
    137 H137       34.3153   23.8784    5.0699 H         1 UNK         0.0634 
@<TRIPOS>BOND
     1    1    2 1    
     2    1   72 1    
     3    1   73 1    
     4    1   74 1    
     5    2    3 2    
     6    2    4 am   BACKBONE|DICT|INTERRES
     7    4    5 1    
     8    4   75 1    
     9    5    6 1    
    10    5   35 1    
    11    5   76 1    
    12    6    7 1    
    13    6   77 1    
    14    6   78 1    
    15    7    8 1    
    16    8    9 1    
    17    8   79 1    
    18    8   80 1    
    19    9   10 ar   
    20    9   14 ar   
    21   10   11 ar   
    22   10   81 1    
    23   11   12 ar   
    24   11   71 1    
    25   12   13 ar   
    26   12   82 1    
    27   13   14 ar   
    28   13   15 1    
    29   14   83 1    
    30   15   16 1    
    31   15   84 1    
    32   15   85 1    
    33   16   17 1    
    34   17   18 1    
    35   17   86 1    
    36   17   87 1    
    37   18   19 1    
    38   18   37 1    
    39   18   88 1    
    40   19   20 am   BACKBONE|DICT|INTERRES
    41   19   89 1    
    42   20   21 2    
    43   20   22 1    
    44   22   23 1    
    45   22   24 1    
    46   22   90 1    
    47   23   91 1    
    48   23   92 1    
    49   23   93 1    
    50   24   25 am   BACKBONE|DICT|INTERRES
    51   24   94 1    
    52   25   26 2    
    53   25   27 1    
    54   27   28 1    
    55   27   29 1    
    56   27   95 1    
    57   28   96 1    
    58   28   97 1    
    59   28   98 1    
    60   29   30 am   BACKBONE|DICT|INTERRES
    61   29   99 1    
    62   30   31 2    
    63   30   32 1    
    64   32   33 1    
    65   32   34 1    
    66   32  100 1    
    67   33  101 1    
    68   33  102 1    
    69   33  103 1    
    70   34   35 am   BACKBONE|DICT|INTERRES
    71   34  104 1    
    72   35   36 2    
    73   37   38 2    
    74   37   39 am   BACKBONE|DICT|INTERRES
    75   39   40 1    
    76   39  105 1    
    77   40   41 1    
    78   40   42 1    
    79   40  106 1    
    80   41  107 1    
    81   41  108 1    
    82   41  109 1    
    83   42   43 2    
    84   42   44 am   BACKBONE|DICT|INTERRES
    85   44   45 1    
    86   44  110 1    
    87   45   46 1    
    88   45   47 1    
    89   45  111 1    
    90   46  112 1    
    91   46  113 1    
    92   46  114 1    
    93   47   48 2    
    94   47   49 am   BACKBONE|DICT|INTERRES
    95   49   50 1    
    96   49  115 1    
    97   50   51 1    
    98   50   52 1    
    99   50  116 1    
   100   51  117 1    
   101   51  118 1    
   102   51  119 1    
   103   52   53 2    
   104   52   54 am   BACKBONE|DICT|INTERRES
   105   54   55 1    
   106   54  120 1    
   107   55   56 1    
   108   55   57 1    
   109   55  121 1    
   110   56  122 1    
   111   56  123 1    
   112   56  124 1    
   113   57   58 2    
   114   57   59 am   BACKBONE|DICT|INTERRES
   115   59   60 1    
   116   59  125 1    
   117   60   61 1    
   118   60   62 1    
   119   60  126 1    
   120   61  127 1    
   121   61  128 1    
   122   61  129 1    
   123   62   63 2    
   124   62   64 am   BACKBONE|DICT|INTERRES
   125   64   65 1    
   126   64  130 1    
   127   65   66 1    
   128   65   69 1    
   129   65  131 1    
   130   66   67 am   BACKBONE|DICT|INTERRES
   131   66   68 2    
   132   67  132 1    
   133   67  133 1    
   134   69   70 1    
   135   69  134 1    
   136   69  135 1    
   137   70   71 1    
   138   71  136 1    
   139   71  137 1    
@<TRIPOS>SUBSTRUCTURE
     1 UNK         1 GROUP             0       ****    0 ROOT    
