@<TRIPOS>MOLECULE
3R136
137   139    1
SMALL
USER_CHARGES


@<TRIPOS>ATOM
      1 CA         29.7877   25.3657    3.5162 C.3       0 UNK        -0.1979 
      2 C          29.3380   24.0552    2.8894 C.2       0 UNK         0.4864 
      3 O          28.6040   23.2930    3.5217 O.2       0 UNK        -0.5359 
      4 N          29.7601   23.7885    1.6454 N.am      1 UNK        -0.4318 
      5 CA         29.3424   22.6341    0.8403 C.3       1 UNK         0.0824 
      6 C6         30.3093   22.3521   -0.3384 C.3       12 UNK        -0.0944 
      7 S7         31.9504   21.7932    0.2300 S.3       12 UNK        -0.2672 
      8 C8         33.0407   23.1196   -0.3732 C.3       12 UNK         0.0333 
      9 C9         32.8578   24.4006    0.4250 C.ar      12 UNK        -0.0807 
     10 C10        33.4572   24.5326    1.6788 C.ar      12 UNK        -0.0894 
     11 C11        33.3020   25.7026    2.4264 C.ar      12 UNK        -0.0804 
     12 C12        32.5194   26.7412    1.9035 C.ar      12 UNK        -0.0824 
     13 C13        31.9098   26.6285    0.6486 C.ar      12 UNK        -0.0762 
     14 C14        32.0954   25.4515   -0.0892 C.ar      12 UNK        -0.0782 
     15 C15        31.0867   27.8138    0.1361 C.3       12 UNK         0.0230 
     16 S16        30.2902   27.5940   -1.4922 S.3       12 UNK        -0.2608 
     17 C17        28.7830   26.6637   -1.0570 C.3       12 UNK        -0.0989 
     18 CA         27.5190   27.5510   -1.1971 C.3       5 UNK         0.0716 
     19 N          26.3322   26.7688   -1.5508 N.am      5 UNK        -0.4135 
     20 C          25.4451   27.1183   -2.4948 C.2       4 UNK         0.5031 
     21 O          25.5770   28.0885   -3.2423 O.2       4 UNK        -0.5229 
     22 CA         24.1804   26.2487   -2.6289 C.3       4 UNK         0.0329 
     23 CB         24.4253   25.0913   -3.6105 C.3       4 UNK        -0.2001 
     24 N          23.7192   25.7074   -1.3502 N.am      4 UNK        -0.4303 
     25 C          23.2847   26.4384   -0.3130 C.2       3 UNK         0.5044 
     26 O          23.0900   27.6525   -0.3664 O.2       3 UNK        -0.5152 
     27 CA         23.0550   25.6992    1.0202 C.3       3 UNK         0.0319 
     28 CB         21.5511   25.5239    1.2856 C.3       3 UNK        -0.2001 
     29 N          23.7152   24.3895    1.1145 N.am      3 UNK        -0.4354 
     30 C          25.0378   24.1779    1.0558 C.2       2 UNK         0.4964 
     31 O          25.8617   25.0842    0.9046 O.2       2 UNK        -0.5047 
     32 CA         25.4860   22.7091    1.1568 C.3       2 UNK         0.0288 
     33 CB         24.9315   21.8611   -0.0093 C.3       2 UNK        -0.2113 
     34 N          26.9414   22.5608    1.2722 N.am      2 UNK        -0.4145 
     35 C          27.8882   22.8226    0.3585 C.2       1 UNK         0.5006 
     36 O          27.6652   23.2141   -0.7899 O.2       1 UNK        -0.5103 
     37 C          27.2457   28.3762    0.0744 C.2       5 UNK         0.5055 
     38 O          27.5429   29.5706    0.0972 O.2       5 UNK        -0.5220 
     39 N          26.6602   27.7300    1.0938 N.am      6 UNK        -0.4450 
     40 CA         26.2493   28.2450    2.4039 C.3       6 UNK         0.0367 
     41 CB         25.2058   29.3724    2.2784 C.3       6 UNK        -0.1929 
     42 C          27.4099   28.6505    3.3280 C.2       6 UNK         0.5070 
     43 O          27.4867   28.1348    4.4431 O.2       6 UNK        -0.5237 
     44 N          28.2787   29.5613    2.8777 N.am      7 UNK        -0.4739 
     45 CA         29.3748   30.1339    3.6584 C.3       7 UNK         0.0276 
     46 CB         28.8229   31.1761    4.6532 C.3       7 UNK        -0.1927 
     47 C          30.4243   30.7624    2.7329 C.2       7 UNK         0.5013 
     48 O          30.1746   30.9465    1.5404 O.2       7 UNK        -0.5193 
     49 N          31.5755   31.0927    3.3215 N.am      8 UNK        -0.4253 
     50 CA         32.7483   31.7208    2.7199 C.3       8 UNK         0.0242 
     51 CB         33.4397   30.7608    1.7286 C.3       8 UNK        -0.2000 
     52 C          33.6899   32.1189    3.8661 C.2       8 UNK         0.4948 
     53 O          33.3874   31.8321    5.0312 O.2       8 UNK        -0.5275 
     54 N          34.8218   32.7514    3.5286 N.am      9 UNK        -0.4246 
     55 CA         35.8867   33.1205    4.4667 C.3       9 UNK         0.0261 
     56 CB         37.0113   33.8448    3.7079 C.3       9 UNK        -0.1959 
     57 C          36.4298   31.8900    5.2166 C.2       9 UNK         0.5033 
     58 O          36.9205   30.9600    4.5743 O.2       9 UNK        -0.5390 
     59 N          36.2765   31.9033    6.5482 N.am      10 UNK        -0.4215 
     60 CA         36.5682   30.8291    7.5105 C.3       10 UNK         0.0240 
     61 CB         38.0464   30.3881    7.4448 C.3       10 UNK        -0.1982 
     62 C          35.6030   29.6236    7.4578 C.2       10 UNK         0.4970 
     63 O          35.7594   28.7133    8.2734 O.2       10 UNK        -0.4916 
     64 N          34.6148   29.6392    6.5547 N.am      11 UNK        -0.4279 
     65 CA         33.5326   28.6459    6.4672 C.3       11 UNK         0.1003 
     66 C          32.2326   29.1440    7.1532 C.2       11 UNK         0.5709 
     67 N          31.9473   30.4417    7.1544 N.am      11 UNK        -0.7358 
     68 O          31.4771   28.3422    7.6961 O.2       11 UNK        -0.4999 
     69 C69        33.2391   28.2434    5.0004 C.3       12 UNK        -0.0954 
     70 S70        34.6606   27.4343    4.1946 S.3       12 UNK        -0.2268 
     71 C71        33.9712   25.7924    3.7990 C.3       12 UNK         0.0203 
     72 H72        29.8526   26.1574    2.7711 H         1 UNK         0.0888 
     73 H73        29.0767   25.6881    4.2768 H         1 UNK         0.0888 
     74 H74        30.7611   25.2451    3.9895 H         1 UNK         0.0888 
     75 H75        30.4059   24.4213    1.1941 H         1 UNK         0.3017 
     76 H76        29.3531   21.7504    1.4828 H         1 UNK         0.0873 
     77 H77        30.4049   23.2270   -0.9830 H         1 UNK         0.0745 
     78 H78        29.9100   21.5581   -0.9727 H         1 UNK         0.0745 
     79 H79        32.8604   23.2893   -1.4360 H         1 UNK         0.0705 
     80 H80        34.0766   22.7869   -0.2914 H         1 UNK         0.0705 
     81 H81        34.0451   23.7145    2.0731 H         1 UNK         0.1334 
     82 H82        32.3817   27.6501    2.4701 H         1 UNK         0.1417 
     83 H83        31.6532   25.3379   -1.0683 H         1 UNK         0.1562 
     84 H84        31.7504   28.6736    0.0549 H         1 UNK         0.0748 
     85 H85        30.3280   28.0826    0.8727 H         1 UNK         0.0748 
     86 H86        28.8682   26.2135   -0.0659 H         1 UNK         0.0940 
     87 H87        28.7266   25.8237   -1.7519 H         1 UNK         0.0940 
     88 H88        27.7056   28.2690   -1.9990 H         1 UNK         0.0703 
     89 H89        26.1311   25.9667   -0.9645 H         1 UNK         0.3081 
     90 H90        23.3849   26.8797   -3.0312 H         1 UNK         0.0719 
     91 H91        24.7502   25.4668   -4.5820 H         1 UNK         0.0809 
     92 H92        25.1978   24.4105   -3.2496 H         1 UNK         0.0809 
     93 H93        23.5168   24.5121   -3.7769 H         1 UNK         0.0809 
     94 H94        23.8220   24.7128   -1.2144 H         1 UNK         0.2990 
     95 H95        23.4693   26.3316    1.8082 H         1 UNK         0.0690 
     96 H96        21.3684   25.0924    2.2700 H         1 UNK         0.0788 
     97 H97        21.0824   24.8783    0.5418 H         1 UNK         0.0788 
     98 H98        21.0340   26.4842    1.2556 H         1 UNK         0.0788 
     99 H99        23.1056   23.5934    1.2383 H         1 UNK         0.2993 
    100 H100       25.0740   22.3184    2.0886 H         1 UNK         0.0949 
    101 H101       23.8424   21.8127    0.0154 H         1 UNK         0.0767 
    102 H102       25.2143   22.2663   -0.9815 H         1 UNK         0.0767 
    103 H103       25.2955   20.8348    0.0416 H         1 UNK         0.0767 
    104 H104       27.2795   22.3842    2.2130 H         1 UNK         0.3013 
    105 H105       26.4665   26.7356    0.9745 H         1 UNK         0.3121 
    106 H106       25.7502   27.4048    2.8901 H         1 UNK         0.0774 
    107 H107       24.3425   29.0498    1.6968 H         1 UNK         0.0815 
    108 H108       24.8407   29.6733    3.2611 H         1 UNK         0.0815 
    109 H109       25.6166   30.2624    1.8012 H         1 UNK         0.0815 
    110 H110       28.1997   29.8898    1.9159 H         1 UNK         0.2987 
    111 H111       29.8643   29.3295    4.2128 H         1 UNK         0.0949 
    112 H112       28.1162   30.7280    5.3518 H         1 UNK         0.0806 
    113 H113       29.6196   31.6191    5.2520 H         1 UNK         0.0806 
    114 H114       28.3112   31.9892    4.1368 H         1 UNK         0.0806 
    115 H115       31.6755   30.9785    4.3234 H         1 UNK         0.3010 
    116 H116       32.4354   32.6294    2.2019 H         1 UNK         0.0829 
    117 H117       34.3453   31.1992    1.3089 H         1 UNK         0.0813 
    118 H118       33.7247   29.8213    2.2025 H         1 UNK         0.0813 
    119 H119       32.7905   30.5312    0.8857 H         1 UNK         0.0813 
    120 H120       35.0042   32.9297    2.5518 H         1 UNK         0.3038 
    121 H121       35.4597   33.8203    5.1884 H         1 UNK         0.0769 
    122 H122       37.8110   34.1421    4.3877 H         1 UNK         0.0811 
    123 H123       36.6461   34.7505    3.2233 H         1 UNK         0.0811 
    124 H124       37.4562   33.2087    2.9413 H         1 UNK         0.0811 
    125 H125       35.8328   32.7175    6.9525 H         1 UNK         0.3204 
    126 H126       36.4132   31.2775    8.4930 H         1 UNK         0.0748 
    127 H127       38.2932   29.7261    8.2758 H         1 UNK         0.0771 
    128 H128       38.2699   29.8451    6.5262 H         1 UNK         0.0771 
    129 H129       38.7198   31.2432    7.5033 H         1 UNK         0.0771 
    130 H130       34.5223   30.4392    5.9404 H         1 UNK         0.2980 
    131 H131       33.8300   27.7379    6.9952 H         1 UNK         0.0545 
    132 H132       32.5411   31.0999    6.6634 H         1 UNK         0.3459 
    133 H133       31.1132   30.7620    7.6194 H         1 UNK         0.3459 
    134 H134       32.3711   27.5834    4.9507 H         1 UNK         0.0616 
    135 H135       32.9827   29.1209    4.4120 H         1 UNK         0.0616 
    136 H136       34.7986   25.0827    3.8481 H         1 UNK         0.0634 
    137 H137       33.2660   25.4823    4.5707 H         1 UNK         0.0634 
@<TRIPOS>BOND
     1    1    2 1    
     2    1   72 1    
     3    1   73 1    
     4    1   74 1    
     5    2    3 2    
     6    2    4 am   BACKBONE|DICT|INTERRES
     7    4    5 1    
     8    4   75 1    
     9    5    6 1    
    10    5   35 1    
    11    5   76 1    
    12    6    7 1    
    13    6   77 1    
    14    6   78 1    
    15    7    8 1    
    16    8    9 1    
    17    8   79 1    
    18    8   80 1    
    19    9   10 ar   
    20    9   14 ar   
    21   10   11 ar   
    22   10   81 1    
    23   11   12 ar   
    24   11   71 1    
    25   12   13 ar   
    26   12   82 1    
    27   13   14 ar   
    28   13   15 1    
    29   14   83 1    
    30   15   16 1    
    31   15   84 1    
    32   15   85 1    
    33   16   17 1    
    34   17   18 1    
    35   17   86 1    
    36   17   87 1    
    37   18   19 1    
    38   18   37 1    
    39   18   88 1    
    40   19   20 am   BACKBONE|DICT|INTERRES
    41   19   89 1    
    42   20   21 2    
    43   20   22 1    
    44   22   23 1    
    45   22   24 1    
    46   22   90 1    
    47   23   91 1    
    48   23   92 1    
    49   23   93 1    
    50   24   25 am   BACKBONE|DICT|INTERRES
    51   24   94 1    
    52   25   26 2    
    53   25   27 1    
    54   27   28 1    
    55   27   29 1    
    56   27   95 1    
    57   28   96 1    
    58   28   97 1    
    59   28   98 1    
    60   29   30 am   BACKBONE|DICT|INTERRES
    61   29   99 1    
    62   30   31 2    
    63   30   32 1    
    64   32   33 1    
    65   32   34 1    
    66   32  100 1    
    67   33  101 1    
    68   33  102 1    
    69   33  103 1    
    70   34   35 am   BACKBONE|DICT|INTERRES
    71   34  104 1    
    72   35   36 2    
    73   37   38 2    
    74   37   39 am   BACKBONE|DICT|INTERRES
    75   39   40 1    
    76   39  105 1    
    77   40   41 1    
    78   40   42 1    
    79   40  106 1    
    80   41  107 1    
    81   41  108 1    
    82   41  109 1    
    83   42   43 2    
    84   42   44 am   BACKBONE|DICT|INTERRES
    85   44   45 1    
    86   44  110 1    
    87   45   46 1    
    88   45   47 1    
    89   45  111 1    
    90   46  112 1    
    91   46  113 1    
    92   46  114 1    
    93   47   48 2    
    94   47   49 am   BACKBONE|DICT|INTERRES
    95   49   50 1    
    96   49  115 1    
    97   50   51 1    
    98   50   52 1    
    99   50  116 1    
   100   51  117 1    
   101   51  118 1    
   102   51  119 1    
   103   52   53 2    
   104   52   54 am   BACKBONE|DICT|INTERRES
   105   54   55 1    
   106   54  120 1    
   107   55   56 1    
   108   55   57 1    
   109   55  121 1    
   110   56  122 1    
   111   56  123 1    
   112   56  124 1    
   113   57   58 2    
   114   57   59 am   BACKBONE|DICT|INTERRES
   115   59   60 1    
   116   59  125 1    
   117   60   61 1    
   118   60   62 1    
   119   60  126 1    
   120   61  127 1    
   121   61  128 1    
   122   61  129 1    
   123   62   63 2    
   124   62   64 am   BACKBONE|DICT|INTERRES
   125   64   65 1    
   126   64  130 1    
   127   65   66 1    
   128   65   69 1    
   129   65  131 1    
   130   66   67 am   BACKBONE|DICT|INTERRES
   131   66   68 2    
   132   67  132 1    
   133   67  133 1    
   134   69   70 1    
   135   69  134 1    
   136   69  135 1    
   137   70   71 1    
   138   71  136 1    
   139   71  137 1    
@<TRIPOS>SUBSTRUCTURE
     1 UNK         1 GROUP             0       ****    0 ROOT    
