@<TRIPOS>MOLECULE
3R136
137   139    1
SMALL
USER_CHARGES


@<TRIPOS>ATOM
      1 CA         30.5320   24.0935   -2.0708 C.3       0 UNK        -0.1979 
      2 C          30.3397   24.3570   -0.5849 C.2       0 UNK         0.4864 
      3 O          31.1268   25.0939    0.0094 O.2       0 UNK        -0.5359 
      4 N          29.2939   23.7733    0.0082 N.am      1 UNK        -0.4318 
      5 CA         28.9663   23.8389    1.4302 C.3       1 UNK         0.0824 
      6 C6         29.6264   22.6472    2.1832 C.3       12 UNK        -0.0944 
      7 S7         29.4461   22.6616    4.0030 S.3       12 UNK        -0.2672 
      8 C8         30.9977   23.4473    4.5472 C.3       12 UNK         0.0333 
      9 C9         31.1305   24.8725    4.0302 C.ar      12 UNK        -0.0807 
     10 C10        32.2265   25.2356    3.2442 C.ar      12 UNK        -0.0894 
     11 C11        32.3500   26.5387    2.7532 C.ar      12 UNK        -0.0804 
     12 C12        31.3484   27.4747    3.0281 C.ar      12 UNK        -0.0824 
     13 C13        30.2335   27.1141    3.7925 C.ar      12 UNK        -0.0762 
     14 C14        30.1470   25.8228    4.3172 C.ar      12 UNK        -0.0782 
     15 C15        29.1183   28.1104    4.0657 C.3       12 UNK         0.0230 
     16 S16        27.7328   27.8834    2.9024 S.3       12 UNK        -0.2608 
     17 C17        28.4048   28.6615    1.4001 C.3       12 UNK        -0.0989 
     18 CA         28.5387   27.6849    0.2070 C.3       5 UNK         0.0716 
     19 N          27.2259   27.3178   -0.3410 N.am      5 UNK        -0.4135 
     20 C          27.0109   26.5358   -1.4091 C.2       4 UNK         0.5031 
     21 O          27.8986   25.9408   -2.0189 O.2       4 UNK        -0.5229 
     22 CA         25.5533   26.3775   -1.8556 C.3       4 UNK         0.0329 
     23 CB         25.4082   25.6484   -3.2068 C.3       4 UNK        -0.2001 
     24 N          24.8061   25.6578   -0.8291 N.am      4 UNK        -0.4303 
     25 C          23.5210   25.8851   -0.5284 C.2       3 UNK         0.5044 
     26 O          22.8285   26.7351   -1.0905 O.2       3 UNK        -0.5152 
     27 CA         22.8815   25.0238    0.5767 C.3       3 UNK         0.0319 
     28 CB         22.0103   23.9185   -0.0425 C.3       3 UNK        -0.2001 
     29 N          23.8449   24.4113    1.4937 N.am      3 UNK        -0.4354 
     30 C          24.6261   25.0792    2.3529 C.2       2 UNK         0.4964 
     31 O          24.6195   26.3039    2.4723 O.2       2 UNK        -0.5047 
     32 CA         25.5680   24.2413    3.2346 C.3       2 UNK         0.0288 
     33 CB         25.0948   22.7840    3.4418 C.3       2 UNK        -0.2113 
     34 N          26.9561   24.2582    2.7634 N.am      2 UNK        -0.4145 
     35 C          27.4294   23.8821    1.5665 C.2       1 UNK         0.5006 
     36 O          26.7154   23.5626    0.6090 O.2       1 UNK        -0.5103 
     37 C          29.4571   28.3186   -0.8603 C.2       5 UNK         0.5055 
     38 O          29.0338   29.2498   -1.5492 O.2       5 UNK        -0.5220 
     39 N          30.7061   27.8403   -0.9391 N.am      6 UNK        -0.4450 
     40 CA         31.7431   28.3667   -1.8344 C.3       6 UNK         0.0367 
     41 CB         32.7917   27.2696   -2.0910 C.3       6 UNK        -0.1929 
     42 C          32.4158   29.6608   -1.3292 C.2       6 UNK         0.5070 
     43 O          33.2501   30.2151   -2.0460 O.2       6 UNK        -0.5237 
     44 N          32.0676   30.1215   -0.1222 N.am      7 UNK        -0.4739 
     45 CA         32.5824   31.3354    0.5082 C.3       7 UNK         0.0276 
     46 CB         33.7997   30.9799    1.3792 C.3       7 UNK        -0.1927 
     47 C          31.4739   31.9850    1.3464 C.2       7 UNK         0.5013 
     48 O          30.4364   31.3634    1.5828 O.2       7 UNK        -0.5193 
     49 N          31.7204   33.2216    1.7971 N.am      8 UNK        -0.4253 
     50 CA         30.7928   34.0229    2.6060 C.3       8 UNK         0.0242 
     51 CB         31.2215   35.4987    2.5291 C.3       8 UNK        -0.2000 
     52 C          30.6678   33.5733    4.0772 C.2       8 UNK         0.4948 
     53 O          29.7997   34.0871    4.7849 O.2       8 UNK        -0.5275 
     54 N          31.5262   32.6494    4.5201 N.am      9 UNK        -0.4246 
     55 CA         31.5416   32.0535    5.8525 C.3       9 UNK         0.0261 
     56 CB         32.5636   32.7967    6.7311 C.3       9 UNK        -0.1959 
     57 C          31.9034   30.5705    5.7096 C.2       9 UNK         0.5033 
     58 O          32.3869   30.1652    4.6498 O.2       9 UNK        -0.5390 
     59 N          31.6626   29.7915    6.7724 N.am      10 UNK        -0.4215 
     60 CA         31.9517   28.3572    6.8361 C.3       10 UNK         0.0240 
     61 CB         31.3609   27.7673    8.1271 C.3       10 UNK        -0.1982 
     62 C          33.4571   28.0651    6.7325 C.2       10 UNK         0.4970 
     63 O          34.2282   28.5727    7.5500 O.2       10 UNK        -0.4916 
     64 N          33.8363   27.2520    5.7405 N.am      11 UNK        -0.4279 
     65 CA         35.2309   26.8733    5.4598 C.3       11 UNK         0.1003 
     66 C          35.8132   25.7924    6.4165 C.2       11 UNK         0.5709 
     67 N          35.0159   25.1472    7.2603 N.am      11 UNK        -0.7358 
     68 O          37.0159   25.5410    6.3988 O.2       11 UNK        -0.4999 
     69 C69        35.4380   26.4733    3.9742 C.3       12 UNK        -0.0954 
     70 S70        34.8635   27.7593    2.8127 S.3       12 UNK        -0.2268 
     71 C71        33.5417   26.9170    1.8846 C.3       12 UNK         0.0203 
     72 H72        31.5452   23.7418   -2.2628 H         1 UNK         0.0888 
     73 H73        29.8345   23.3435   -2.4430 H         1 UNK         0.0888 
     74 H74        30.3732   25.0107   -2.6366 H         1 UNK         0.0888 
     75 H75        28.6053   23.2794   -0.5456 H         1 UNK         0.3017 
     76 H76        29.3503   24.7768    1.8334 H         1 UNK         0.0873 
     77 H77        29.2207   21.7027    1.8158 H         1 UNK         0.0745 
     78 H78        30.6927   22.6159    1.9524 H         1 UNK         0.0745 
     79 H79        31.0233   23.4623    5.6376 H         1 UNK         0.0705 
     80 H80        31.8395   22.8315    4.2269 H         1 UNK         0.0705 
     81 H81        32.9804   24.4992    3.0031 H         1 UNK         0.1334 
     82 H82        31.4404   28.4829    2.6474 H         1 UNK         0.1417 
     83 H83        29.2956   25.5464    4.9241 H         1 UNK         0.1562 
     84 H84        29.4905   29.1353    4.0136 H         1 UNK         0.0748 
     85 H85        28.7491   27.9766    5.0837 H         1 UNK         0.0748 
     86 H86        29.3748   29.0866    1.6520 H         1 UNK         0.0940 
     87 H87        27.7764   29.5143    1.1353 H         1 UNK         0.0940 
     88 H88        29.0100   26.7687    0.5624 H         1 UNK         0.0703 
     89 H89        26.4290   27.7400    0.1129 H         1 UNK         0.3081 
     90 H90        25.1535   27.3876   -1.9698 H         1 UNK         0.0719 
     91 H91        25.9760   26.1559   -3.9877 H         1 UNK         0.0809 
     92 H92        25.7723   24.6218   -3.1508 H         1 UNK         0.0809 
     93 H93        24.3680   25.6175   -3.5313 H         1 UNK         0.0809 
     94 H94        25.3181   24.9489   -0.3128 H         1 UNK         0.2990 
     95 H95        22.2351   25.6798    1.1635 H         1 UNK         0.0690 
     96 H96        21.2567   24.3417   -0.7083 H         1 UNK         0.0788 
     97 H97        21.4804   23.3530    0.7243 H         1 UNK         0.0788 
     98 H98        22.6054   23.2169   -0.6286 H         1 UNK         0.0788 
     99 H99        23.9436   23.4073    1.4467 H         1 UNK         0.2993 
    100 H100       25.5698   24.7252    4.2128 H         1 UNK         0.0949 
    101 H101       25.7102   22.2802    4.1876 H         1 UNK         0.0767 
    102 H102       24.0657   22.7502    3.8027 H         1 UNK         0.0767 
    103 H103       25.1472   22.1935    2.5264 H         1 UNK         0.0767 
    104 H104       27.6371   24.5144    3.4639 H         1 UNK         0.3013 
    105 H105       30.9592   27.0240   -0.3856 H         1 UNK         0.3121 
    106 H106       31.2791   28.6104   -2.7926 H         1 UNK         0.0774 
    107 H107       33.5822   27.6258   -2.7529 H         1 UNK         0.0815 
    108 H108       33.2662   26.9340   -1.1694 H         1 UNK         0.0815 
    109 H109       32.3456   26.4000   -2.5710 H         1 UNK         0.0815 
    110 H110       31.3081   29.6781    0.3752 H         1 UNK         0.2987 
    111 H111       32.8799   32.0506   -0.2622 H         1 UNK         0.0949 
    112 H112       33.5195   30.3229    2.2028 H         1 UNK         0.0806 
    113 H113       34.5717   30.4747    0.7985 H         1 UNK         0.0806 
    114 H114       34.2548   31.8705    1.8133 H         1 UNK         0.0806 
    115 H115       32.6034   33.6556    1.5675 H         1 UNK         0.3010 
    116 H116       29.7976   33.9357    2.1643 H         1 UNK         0.0829 
    117 H117       32.2135   35.6535    2.9554 H         1 UNK         0.0813 
    118 H118       31.2371   35.8556    1.4991 H         1 UNK         0.0813 
    119 H119       30.5285   36.1377    3.0786 H         1 UNK         0.0813 
    120 H120       32.1453   32.1954    3.8607 H         1 UNK         0.3038 
    121 H121       30.5486   32.1195    6.3026 H         1 UNK         0.0769 
    122 H122       33.5718   32.7270    6.3206 H         1 UNK         0.0811 
    123 H123       32.5924   32.3846    7.7404 H         1 UNK         0.0811 
    124 H124       32.3121   33.8536    6.8214 H         1 UNK         0.0811 
    125 H125       31.2977   30.2149    7.6132 H         1 UNK         0.3204 
    126 H126       31.4481   27.8838    5.9965 H         1 UNK         0.0748 
    127 H127       31.5434   26.6934    8.1839 H         1 UNK         0.0771 
    128 H128       31.7999   28.2204    9.0170 H         1 UNK         0.0771 
    129 H129       30.2813   27.9129    8.1723 H         1 UNK         0.0771 
    130 H130       33.1478   26.9108    5.0844 H         1 UNK         0.2980 
    131 H131       35.8407   27.7630    5.6293 H         1 UNK         0.0545 
    132 H132       35.4084   24.4537    7.8771 H         1 UNK         0.3459 
    133 H133       34.0297   25.3468    7.2854 H         1 UNK         0.3459 
    134 H134       34.9481   25.5247    3.7568 H         1 UNK         0.0616 
    135 H135       36.4985   26.3115    3.7730 H         1 UNK         0.0616 
    136 H136       33.2066   27.5857    1.0918 H         1 UNK         0.0634 
    137 H137       33.9505   26.0359    1.3875 H         1 UNK         0.0634 
@<TRIPOS>BOND
     1    1    2 1    
     2    1   72 1    
     3    1   73 1    
     4    1   74 1    
     5    2    3 2    
     6    2    4 am   BACKBONE|DICT|INTERRES
     7    4    5 1    
     8    4   75 1    
     9    5    6 1    
    10    5   35 1    
    11    5   76 1    
    12    6    7 1    
    13    6   77 1    
    14    6   78 1    
    15    7    8 1    
    16    8    9 1    
    17    8   79 1    
    18    8   80 1    
    19    9   10 ar   
    20    9   14 ar   
    21   10   11 ar   
    22   10   81 1    
    23   11   12 ar   
    24   11   71 1    
    25   12   13 ar   
    26   12   82 1    
    27   13   14 ar   
    28   13   15 1    
    29   14   83 1    
    30   15   16 1    
    31   15   84 1    
    32   15   85 1    
    33   16   17 1    
    34   17   18 1    
    35   17   86 1    
    36   17   87 1    
    37   18   19 1    
    38   18   37 1    
    39   18   88 1    
    40   19   20 am   BACKBONE|DICT|INTERRES
    41   19   89 1    
    42   20   21 2    
    43   20   22 1    
    44   22   23 1    
    45   22   24 1    
    46   22   90 1    
    47   23   91 1    
    48   23   92 1    
    49   23   93 1    
    50   24   25 am   BACKBONE|DICT|INTERRES
    51   24   94 1    
    52   25   26 2    
    53   25   27 1    
    54   27   28 1    
    55   27   29 1    
    56   27   95 1    
    57   28   96 1    
    58   28   97 1    
    59   28   98 1    
    60   29   30 am   BACKBONE|DICT|INTERRES
    61   29   99 1    
    62   30   31 2    
    63   30   32 1    
    64   32   33 1    
    65   32   34 1    
    66   32  100 1    
    67   33  101 1    
    68   33  102 1    
    69   33  103 1    
    70   34   35 am   BACKBONE|DICT|INTERRES
    71   34  104 1    
    72   35   36 2    
    73   37   38 2    
    74   37   39 am   BACKBONE|DICT|INTERRES
    75   39   40 1    
    76   39  105 1    
    77   40   41 1    
    78   40   42 1    
    79   40  106 1    
    80   41  107 1    
    81   41  108 1    
    82   41  109 1    
    83   42   43 2    
    84   42   44 am   BACKBONE|DICT|INTERRES
    85   44   45 1    
    86   44  110 1    
    87   45   46 1    
    88   45   47 1    
    89   45  111 1    
    90   46  112 1    
    91   46  113 1    
    92   46  114 1    
    93   47   48 2    
    94   47   49 am   BACKBONE|DICT|INTERRES
    95   49   50 1    
    96   49  115 1    
    97   50   51 1    
    98   50   52 1    
    99   50  116 1    
   100   51  117 1    
   101   51  118 1    
   102   51  119 1    
   103   52   53 2    
   104   52   54 am   BACKBONE|DICT|INTERRES
   105   54   55 1    
   106   54  120 1    
   107   55   56 1    
   108   55   57 1    
   109   55  121 1    
   110   56  122 1    
   111   56  123 1    
   112   56  124 1    
   113   57   58 2    
   114   57   59 am   BACKBONE|DICT|INTERRES
   115   59   60 1    
   116   59  125 1    
   117   60   61 1    
   118   60   62 1    
   119   60  126 1    
   120   61  127 1    
   121   61  128 1    
   122   61  129 1    
   123   62   63 2    
   124   62   64 am   BACKBONE|DICT|INTERRES
   125   64   65 1    
   126   64  130 1    
   127   65   66 1    
   128   65   69 1    
   129   65  131 1    
   130   66   67 am   BACKBONE|DICT|INTERRES
   131   66   68 2    
   132   67  132 1    
   133   67  133 1    
   134   69   70 1    
   135   69  134 1    
   136   69  135 1    
   137   70   71 1    
   138   71  136 1    
   139   71  137 1    
@<TRIPOS>SUBSTRUCTURE
     1 UNK         1 GROUP             0       ****    0 ROOT    
