@<TRIPOS>MOLECULE
3R136
137   139    1
SMALL
USER_CHARGES


@<TRIPOS>ATOM
      1 CA         26.8632   18.7627   -2.7344 C.3       0 UNK        -0.1979 
      2 C          27.9077   19.7960   -2.3377 C.2       0 UNK         0.4864 
      3 O          28.9385   19.9092   -3.0037 O.2       0 UNK        -0.5359 
      4 N          27.6527   20.5431   -1.2553 N.am      1 UNK        -0.4318 
      5 CA         28.5091   21.6305   -0.7687 C.3       1 UNK         0.0824 
      6 C6         28.2421   21.9297    0.7323 C.3       12 UNK        -0.0944 
      7 S7         29.7757   22.2951    1.6498 S.3       12 UNK        -0.2672 
      8 C8         29.5890   24.0608    2.0456 C.3       12 UNK         0.0333 
      9 C9         30.6166   24.4943    3.0790 C.ar      12 UNK        -0.0807 
     10 C10        31.9607   24.6392    2.7202 C.ar      12 UNK        -0.0894 
     11 C11        32.9137   25.0110    3.6736 C.ar      12 UNK        -0.0804 
     12 C12        32.5076   25.2625    4.9867 C.ar      12 UNK        -0.0824 
     13 C13        31.1635   25.1477    5.3528 C.ar      12 UNK        -0.0762 
     14 C14        30.2258   24.7440    4.3982 C.ar      12 UNK        -0.0782 
     15 C15        30.7343   25.4432    6.7836 C.3       12 UNK         0.0230 
     16 S16        30.1919   27.1728    6.9893 S.3       12 UNK        -0.2608 
     17 C17        28.4856   27.1265    6.3425 C.3       12 UNK        -0.0989 
     18 CA         28.3697   27.6702    4.8916 C.3       5 UNK         0.0716 
     19 N          27.3748   26.9066    4.1231 N.am      5 UNK        -0.4135 
     20 C          27.1520   27.0092    2.8056 C.2       4 UNK         0.5031 
     21 O          27.7287   27.8222    2.0809 O.2       4 UNK        -0.5229 
     22 CA         26.1063   26.0308    2.2364 C.3       4 UNK         0.0329 
     23 CB         24.6973   26.3031    2.8087 C.3       4 UNK        -0.2001 
     24 N          26.0968   25.9759    0.7676 N.am      4 UNK        -0.4303 
     25 C          25.6380   26.8917   -0.0994 C.2       3 UNK         0.5044 
     26 O          25.0684   27.9337    0.2286 O.2       3 UNK        -0.5152 
     27 CA         25.8047   26.5486   -1.5958 C.3       3 UNK         0.0319 
     28 CB         25.6945   27.7780   -2.5235 C.3       3 UNK        -0.2001 
     29 N          27.0121   25.7692   -1.9058 N.am      3 UNK        -0.4354 
     30 C          28.2939   26.1285   -1.7424 C.2       2 UNK         0.4964 
     31 O          28.6488   27.1976   -1.2472 O.2       2 UNK        -0.5047 
     32 CA         29.3555   25.1121   -2.2224 C.3       2 UNK         0.0288 
     33 CB         30.7907   25.6635   -2.1150 C.3       2 UNK        -0.2113 
     34 N          29.3000   23.8276   -1.5153 N.am      2 UNK        -0.4145 
     35 C          28.3469   22.8949   -1.6397 C.2       1 UNK         0.5006 
     36 O          27.3607   23.0240   -2.3723 O.2       1 UNK        -0.5103 
     37 C          28.1372   29.1996    4.8640 C.2       5 UNK         0.5055 
     38 O          29.0882   29.9628    5.0304 O.2       5 UNK        -0.5220 
     39 N          26.8838   29.6216    4.6368 N.am      6 UNK        -0.4450 
     40 CA         26.4953   31.0211    4.4542 C.3       6 UNK         0.0367 
     41 CB         24.9630   31.1348    4.5017 C.3       6 UNK        -0.1929 
     42 C          27.0410   31.6350    3.1519 C.2       6 UNK         0.5070 
     43 O          27.3700   32.8214    3.1442 O.2       6 UNK        -0.5237 
     44 N          27.1301   30.8311    2.0821 N.am      7 UNK        -0.4739 
     45 CA         27.7270   31.2353    0.8081 C.3       7 UNK         0.0276 
     46 CB         27.0783   30.4622   -0.3463 C.3       7 UNK        -0.1927 
     47 C          29.2411   31.0016    0.8260 C.2       7 UNK         0.5013 
     48 O          29.9958   31.8920    0.4325 O.2       7 UNK        -0.5193 
     49 N          29.6695   29.8368    1.3329 N.am      8 UNK        -0.4253 
     50 CA         31.0711   29.4450    1.5076 C.3       8 UNK         0.0242 
     51 CB         31.1499   27.9100    1.5909 C.3       8 UNK        -0.2000 
     52 C          31.7360   30.1354    2.7177 C.2       8 UNK         0.4948 
     53 O          32.4439   29.4868    3.4881 O.2       8 UNK        -0.5275 
     54 N          31.5279   31.4517    2.8588 N.am      9 UNK        -0.4246 
     55 CA         31.9662   32.2862    3.9841 C.3       9 UNK         0.0261 
     56 CB         31.3713   33.6939    3.8186 C.3       9 UNK        -0.1959 
     57 C          33.4926   32.3587    4.1833 C.2       9 UNK         0.5033 
     58 O          33.9412   32.7378    5.2659 O.2       9 UNK        -0.5390 
     59 N          34.2609   31.9779    3.1538 N.am      10 UNK        -0.4215 
     60 CA         35.7132   31.8070    3.1985 C.3       10 UNK         0.0240 
     61 CB         36.2420   31.6606    1.7619 C.3       10 UNK        -0.1982 
     62 C          36.1732   30.6153    4.0626 C.2       10 UNK         0.4970 
     63 O          37.3373   30.6021    4.4662 O.2       10 UNK        -0.4916 
     64 N          35.2845   29.6475    4.3266 N.am      11 UNK        -0.4279 
     65 CA         35.5655   28.4493    5.1318 C.3       11 UNK         0.1003 
     66 C          34.4436   28.0763    6.1373 C.2       11 UNK         0.5709 
     67 N          33.2121   28.5392    5.9757 N.am      11 UNK        -0.7358 
     68 O          34.7060   27.3664    7.1054 O.2       11 UNK        -0.4999 
     69 C69        36.0212   27.2465    4.2609 C.3       12 UNK        -0.0954 
     70 S70        34.8742   26.8172    2.8993 S.3       12 UNK        -0.2268 
     71 C71        34.3837   25.1076    3.2926 C.3       12 UNK         0.0203 
     72 H72        27.3024   17.7655   -2.7342 H         1 UNK         0.0888 
     73 H73        26.0135   18.7587   -2.0519 H         1 UNK         0.0888 
     74 H74        26.4914   18.9719   -3.7371 H         1 UNK         0.0888 
     75 H75        26.7731   20.4271   -0.7729 H         1 UNK         0.3017 
     76 H76        29.5413   21.2902   -0.8827 H         1 UNK         0.0873 
     77 H77        27.5036   22.7215    0.8740 H         1 UNK         0.0745 
     78 H78        27.8136   21.0525    1.2205 H         1 UNK         0.0745 
     79 H79        29.6945   24.6671    1.1454 H         1 UNK         0.0705 
     80 H80        28.5828   24.2350    2.4237 H         1 UNK         0.0705 
     81 H81        32.2666   24.4419    1.7019 H         1 UNK         0.1334 
     82 H82        33.2412   25.5461    5.7271 H         1 UNK         0.1417 
     83 H83        29.1899   24.6287    4.6831 H         1 UNK         0.1562 
     84 H84        31.5703   25.2634    7.4615 H         1 UNK         0.0748 
     85 H85        29.9452   24.7583    7.0971 H         1 UNK         0.0748 
     86 H86        27.8377   27.6768    7.0281 H         1 UNK         0.0940 
     87 H87        28.1371   26.0948    6.4014 H         1 UNK         0.0940 
     88 H88        29.3221   27.5030    4.3854 H         1 UNK         0.0703 
     89 H89        26.8367   26.2320    4.6471 H         1 UNK         0.3081 
     90 H90        26.3977   25.0310    2.5596 H         1 UNK         0.0719 
     91 H91        24.3834   27.3359    2.6535 H         1 UNK         0.0809 
     92 H92        23.9509   25.6557    2.3483 H         1 UNK         0.0809 
     93 H93        24.6606   26.1159    3.8821 H         1 UNK         0.0809 
     94 H94        26.5584   25.1752    0.3638 H         1 UNK         0.2990 
     95 H95        24.9637   25.8955   -1.8330 H         1 UNK         0.0690 
     96 H96        25.7057   27.4815   -3.5721 H         1 UNK         0.0788 
     97 H97        26.5139   28.4788   -2.3688 H         1 UNK         0.0788 
     98 H98        24.7639   28.3210   -2.3538 H         1 UNK         0.0788 
     99 H99        26.8520   24.8343   -2.2758 H         1 UNK         0.2993 
    100 H100       29.1536   24.9258   -3.2796 H         1 UNK         0.0949 
    101 H101       30.8881   26.6109   -2.6471 H         1 UNK         0.0767 
    102 H102       31.0797   25.8402   -1.0784 H         1 UNK         0.0767 
    103 H103       31.5142   24.9749   -2.5521 H         1 UNK         0.0767 
    104 H104       30.0613   23.6419   -0.8782 H         1 UNK         0.3013 
    105 H105       26.1585   28.9294    4.5243 H         1 UNK         0.3121 
    106 H106       26.9067   31.5958    5.2871 H         1 UNK         0.0774 
    107 H107       24.6470   32.1732    4.3915 H         1 UNK         0.0815 
    108 H108       24.4893   30.5644    3.7016 H         1 UNK         0.0815 
    109 H109       24.5665   30.7770    5.4520 H         1 UNK         0.0815 
    110 H110       26.8905   29.8513    2.1759 H         1 UNK         0.2987 
    111 H111       27.5478   32.3000    0.6415 H         1 UNK         0.0949 
    112 H112       27.2813   29.3939   -0.2694 H         1 UNK         0.0806 
    113 H113       25.9970   30.5986   -0.3634 H         1 UNK         0.0806 
    114 H114       27.4670   30.7974   -1.3085 H         1 UNK         0.0806 
    115 H115       28.9734   29.1530    1.6242 H         1 UNK         0.3010 
    116 H116       31.6254   29.7555    0.6197 H         1 UNK         0.0829 
    117 H117       30.6585   27.4392    0.7398 H         1 UNK         0.0813 
    118 H118       32.1858   27.5698    1.5986 H         1 UNK         0.0813 
    119 H119       30.6789   27.5313    2.4975 H         1 UNK         0.0813 
    120 H120       30.9665   31.9046    2.1441 H         1 UNK         0.3038 
    121 H121       31.5491   31.8428    4.8909 H         1 UNK         0.0769 
    122 H122       31.7267   34.1770    2.9076 H         1 UNK         0.0811 
    123 H123       31.6438   34.3358    4.6575 H         1 UNK         0.0811 
    124 H124       30.2818   33.6607    3.7789 H         1 UNK         0.0811 
    125 H125       33.7951   31.6911    2.3056 H         1 UNK         0.3204 
    126 H126       36.1454   32.7106    3.6334 H         1 UNK         0.0748 
    127 H127       35.9881   32.5291    1.1538 H         1 UNK         0.0771 
    128 H128       37.3291   31.5688    1.7534 H         1 UNK         0.0771 
    129 H129       35.8370   30.7744    1.2711 H         1 UNK         0.0771 
    130 H130       34.3406   29.7120    3.9591 H         1 UNK         0.2980 
    131 H131       36.4077   28.6863    5.7847 H         1 UNK         0.0545 
    132 H132       32.5000   28.2751    6.6378 H         1 UNK         0.3459 
    133 H133       32.9357   28.9962    5.1092 H         1 UNK         0.3459 
    134 H134       36.2187   26.3762    4.8878 H         1 UNK         0.0616 
    135 H135       36.9802   27.4886    3.8010 H         1 UNK         0.0616 
    136 H136       34.5814   24.4866    2.4176 H         1 UNK         0.0634 
    137 H137       34.9997   24.6945    4.0916 H         1 UNK         0.0634 
@<TRIPOS>BOND
     1    1    2 1    
     2    1   72 1    
     3    1   73 1    
     4    1   74 1    
     5    2    3 2    
     6    2    4 am   BACKBONE|DICT|INTERRES
     7    4    5 1    
     8    4   75 1    
     9    5    6 1    
    10    5   35 1    
    11    5   76 1    
    12    6    7 1    
    13    6   77 1    
    14    6   78 1    
    15    7    8 1    
    16    8    9 1    
    17    8   79 1    
    18    8   80 1    
    19    9   10 ar   
    20    9   14 ar   
    21   10   11 ar   
    22   10   81 1    
    23   11   12 ar   
    24   11   71 1    
    25   12   13 ar   
    26   12   82 1    
    27   13   14 ar   
    28   13   15 1    
    29   14   83 1    
    30   15   16 1    
    31   15   84 1    
    32   15   85 1    
    33   16   17 1    
    34   17   18 1    
    35   17   86 1    
    36   17   87 1    
    37   18   19 1    
    38   18   37 1    
    39   18   88 1    
    40   19   20 am   BACKBONE|DICT|INTERRES
    41   19   89 1    
    42   20   21 2    
    43   20   22 1    
    44   22   23 1    
    45   22   24 1    
    46   22   90 1    
    47   23   91 1    
    48   23   92 1    
    49   23   93 1    
    50   24   25 am   BACKBONE|DICT|INTERRES
    51   24   94 1    
    52   25   26 2    
    53   25   27 1    
    54   27   28 1    
    55   27   29 1    
    56   27   95 1    
    57   28   96 1    
    58   28   97 1    
    59   28   98 1    
    60   29   30 am   BACKBONE|DICT|INTERRES
    61   29   99 1    
    62   30   31 2    
    63   30   32 1    
    64   32   33 1    
    65   32   34 1    
    66   32  100 1    
    67   33  101 1    
    68   33  102 1    
    69   33  103 1    
    70   34   35 am   BACKBONE|DICT|INTERRES
    71   34  104 1    
    72   35   36 2    
    73   37   38 2    
    74   37   39 am   BACKBONE|DICT|INTERRES
    75   39   40 1    
    76   39  105 1    
    77   40   41 1    
    78   40   42 1    
    79   40  106 1    
    80   41  107 1    
    81   41  108 1    
    82   41  109 1    
    83   42   43 2    
    84   42   44 am   BACKBONE|DICT|INTERRES
    85   44   45 1    
    86   44  110 1    
    87   45   46 1    
    88   45   47 1    
    89   45  111 1    
    90   46  112 1    
    91   46  113 1    
    92   46  114 1    
    93   47   48 2    
    94   47   49 am   BACKBONE|DICT|INTERRES
    95   49   50 1    
    96   49  115 1    
    97   50   51 1    
    98   50   52 1    
    99   50  116 1    
   100   51  117 1    
   101   51  118 1    
   102   51  119 1    
   103   52   53 2    
   104   52   54 am   BACKBONE|DICT|INTERRES
   105   54   55 1    
   106   54  120 1    
   107   55   56 1    
   108   55   57 1    
   109   55  121 1    
   110   56  122 1    
   111   56  123 1    
   112   56  124 1    
   113   57   58 2    
   114   57   59 am   BACKBONE|DICT|INTERRES
   115   59   60 1    
   116   59  125 1    
   117   60   61 1    
   118   60   62 1    
   119   60  126 1    
   120   61  127 1    
   121   61  128 1    
   122   61  129 1    
   123   62   63 2    
   124   62   64 am   BACKBONE|DICT|INTERRES
   125   64   65 1    
   126   64  130 1    
   127   65   66 1    
   128   65   69 1    
   129   65  131 1    
   130   66   67 am   BACKBONE|DICT|INTERRES
   131   66   68 2    
   132   67  132 1    
   133   67  133 1    
   134   69   70 1    
   135   69  134 1    
   136   69  135 1    
   137   70   71 1    
   138   71  136 1    
   139   71  137 1    
@<TRIPOS>SUBSTRUCTURE
     1 UNK         1 GROUP             0       ****    0 ROOT    
