@<TRIPOS>MOLECULE
3R136
137   139    1
SMALL
USER_CHARGES


@<TRIPOS>ATOM
      1 CA         28.1623   20.2774   -1.7806 C.3       0 UNK        -0.1979 
      2 C          29.0408   20.1791   -0.5351 C.2       0 UNK         0.4864 
      3 O          29.2728   19.0716   -0.0529 O.2       0 UNK        -0.5359 
      4 N          29.5605   21.2852    0.0198 N.am      1 UNK        -0.4318 
      5 CA         29.3566   22.6824   -0.3906 C.3       1 UNK         0.0824 
      6 C6         30.3222   23.6373    0.3502 C.3       12 UNK        -0.0944 
      7 S7         32.0757   23.2751   -0.0086 S.3       12 UNK        -0.2672 
      8 C8         32.8873   24.8215    0.5139 C.3       12 UNK         0.0333 
      9 C9         32.7872   25.0201    2.0185 C.ar      12 UNK        -0.0807 
     10 C10        33.7726   24.5179    2.8724 C.ar      12 UNK        -0.0894 
     11 C11        33.6626   24.6846    4.2575 C.ar      12 UNK        -0.0804 
     12 C12        32.5402   25.3279    4.7890 C.ar      12 UNK        -0.0824 
     13 C13        31.5418   25.8192    3.9437 C.ar      12 UNK        -0.0762 
     14 C14        31.6915   25.6930    2.5601 C.ar      12 UNK        -0.0782 
     15 C15        30.3060   26.4966    4.5152 C.3       12 UNK         0.0230 
     16 S16        28.7702   25.8023    3.8142 S.3       12 UNK        -0.2608 
     17 C17        27.6724   27.2478    3.9354 C.3       12 UNK        -0.0989 
     18 CA         27.8978   28.2466    2.7727 C.3       5 UNK         0.0716 
     19 N          27.5776   27.6789    1.4547 N.am      5 UNK        -0.4135 
     20 C          27.8696   28.2591    0.2776 C.2       4 UNK         0.5031 
     21 O          28.4875   29.3201    0.1861 O.2       4 UNK        -0.5229 
     22 CA         27.3338   27.6138   -1.0128 C.3       4 UNK         0.0329 
     23 CB         28.4582   26.8841   -1.7606 C.3       4 UNK        -0.2001 
     24 N          26.1993   26.7110   -0.7978 N.am      4 UNK        -0.4303 
     25 C          25.0081   27.1014   -0.3148 C.2       3 UNK         0.5044 
     26 O          24.7388   28.2731   -0.0448 O.2       3 UNK        -0.5152 
     27 CA         23.9550   26.0136   -0.0330 C.3       3 UNK         0.0319 
     28 CB         22.9365   25.9461   -1.1818 C.3       3 UNK        -0.2001 
     29 N          24.5023   24.6735    0.2034 N.am      3 UNK        -0.4354 
     30 C          25.3843   24.3383    1.1565 C.2       2 UNK         0.4964 
     31 O          25.8673   25.1448    1.9518 O.2       2 UNK        -0.5047 
     32 CA         25.8312   22.8632    1.2146 C.3       2 UNK         0.0288 
     33 CB         24.9724   21.9114    0.3493 C.3       2 UNK        -0.2113 
     34 N          27.2505   22.6875    0.8813 N.am      2 UNK        -0.4145 
     35 C          27.8933   23.1396   -0.2085 C.2       1 UNK         0.5006 
     36 O          27.3723   23.8435   -1.0757 O.2       1 UNK        -0.5103 
     37 C          27.1991   29.5920    3.0682 C.2       5 UNK         0.5055 
     38 O          27.5919   30.2576    4.0251 O.2       5 UNK        -0.5220 
     39 N          26.2286   30.0091    2.2395 N.am      6 UNK        -0.4450 
     40 CA         25.6915   31.3726    2.2260 C.3       6 UNK         0.0367 
     41 CB         24.4935   31.4339    1.2656 C.3       6 UNK        -0.1929 
     42 C          26.7429   32.4368    1.8432 C.2       6 UNK         0.5070 
     43 O          26.6057   33.5862    2.2630 O.2       6 UNK        -0.5237 
     44 N          27.7664   32.0417    1.0712 N.am      7 UNK        -0.4739 
     45 CA         28.9006   32.8813    0.6799 C.3       7 UNK         0.0276 
     46 CB         28.9750   32.9477   -0.8545 C.3       7 UNK        -0.1927 
     47 C          30.2199   32.3451    1.2567 C.2       7 UNK         0.5013 
     48 O          31.0258   33.1313    1.7534 O.2       7 UNK        -0.5193 
     49 N          30.4200   31.0212    1.2010 N.am      8 UNK        -0.4253 
     50 CA         31.6473   30.3211    1.5952 C.3       8 UNK         0.0242 
     51 CB         31.7795   29.0450    0.7412 C.3       8 UNK        -0.2000 
     52 C          31.7329   30.0015    3.1010 C.2       8 UNK         0.4948 
     53 O          32.4612   29.0822    3.4741 O.2       8 UNK        -0.5275 
     54 N          31.0089   30.7518    3.9456 N.am      9 UNK        -0.4246 
     55 CA         30.8727   30.5651    5.3990 C.3       9 UNK         0.0261 
     56 CB         30.0493   31.7292    5.9764 C.3       9 UNK        -0.1959 
     57 C          32.1937   30.4354    6.1822 C.2       9 UNK         0.5033 
     58 O          32.2239   29.7544    7.2079 O.2       9 UNK        -0.5390 
     59 N          33.2533   31.0873    5.6883 N.am      10 UNK        -0.4215 
     60 CA         34.6005   31.0601    6.2573 C.3       10 UNK         0.0240 
     61 CB         35.3584   32.3091    5.7737 C.3       10 UNK        -0.1982 
     62 C          35.4032   29.7838    5.9314 C.2       10 UNK         0.4970 
     63 O          36.4931   29.6327    6.4859 O.2       10 UNK        -0.4916 
     64 N          34.8962   28.9120    5.0440 N.am      11 UNK        -0.4279 
     65 CA         35.6162   27.7579    4.4781 C.3       11 UNK         0.1003 
     66 C          36.7969   28.2065    3.5568 C.2       11 UNK         0.5709 
     67 N          37.7983   27.3681    3.3311 N.am      11 UNK        -0.7358 
     68 O          36.7938   29.3036    2.9996 O.2       11 UNK        -0.4999 
     69 C69        35.9755   26.6979    5.5696 C.3       12 UNK        -0.0954 
     70 S70        36.3305   25.0234    4.9278 S.3       12 UNK        -0.2268 
     71 C71        34.7509   24.1560    5.1788 C.3       12 UNK         0.0203 
     72 H72        28.5517   20.9964   -2.4998 H         1 UNK         0.0888 
     73 H73        28.1124   19.3120   -2.2840 H         1 UNK         0.0888 
     74 H74        27.1463   20.5635   -1.5113 H         1 UNK         0.0888 
     75 H75        30.1734   21.1682    0.8141 H         1 UNK         0.3017 
     76 H76        29.5827   22.7554   -1.4559 H         1 UNK         0.0873 
     77 H77        30.1293   24.6721    0.0676 H         1 UNK         0.0745 
     78 H78        30.1668   23.5779    1.4294 H         1 UNK         0.0745 
     79 H79        32.4441   25.6674   -0.0143 H         1 UNK         0.0705 
     80 H80        33.9354   24.7898    0.2127 H         1 UNK         0.0705 
     81 H81        34.6286   24.0004    2.4609 H         1 UNK         0.1334 
     82 H82        32.4432   25.4442    5.8598 H         1 UNK         0.1417 
     83 H83        30.9279   26.0875    1.9053 H         1 UNK         0.1562 
     84 H84        30.3741   27.5611    4.2988 H         1 UNK         0.0748 
     85 H85        30.2714   26.4032    5.6016 H         1 UNK         0.0748 
     86 H86        27.8426   27.7195    4.9059 H         1 UNK         0.0940 
     87 H87        26.6377   26.9003    3.9464 H         1 UNK         0.0940 
     88 H88        28.9613   28.4891    2.7440 H         1 UNK         0.0703 
     89 H89        27.0554   26.8084    1.4651 H         1 UNK         0.3081 
     90 H90        26.9834   28.4278   -1.6510 H         1 UNK         0.0719 
     91 H91        29.2800   27.5642   -1.9899 H         1 UNK         0.0809 
     92 H92        28.1055   26.4705   -2.7055 H         1 UNK         0.0809 
     93 H93        28.8682   26.0680   -1.1703 H         1 UNK         0.0809 
     94 H94        26.3610   25.7238   -0.9690 H         1 UNK         0.2990 
     95 H95        23.4265   26.3104    0.8752 H         1 UNK         0.0690 
     96 H96        22.1223   25.2584   -0.9522 H         1 UNK         0.0788 
     97 H97        23.4008   25.6203   -2.1136 H         1 UNK         0.0788 
     98 H98        22.4889   26.9241   -1.3652 H         1 UNK         0.0788 
     99 H99        24.1886   23.9443   -0.4207 H         1 UNK         0.2993 
    100 H100       25.7151   22.5589    2.2561 H         1 UNK         0.0949 
    101 H101       23.9151   21.9829    0.6092 H         1 UNK         0.0767 
    102 H102       25.0721   22.1175   -0.7172 H         1 UNK         0.0767 
    103 H103       25.2655   20.8734    0.5082 H         1 UNK         0.0767 
    104 H104       27.7852   22.1427    1.5433 H         1 UNK         0.3013 
    105 H105       25.9220   29.3962    1.4929 H         1 UNK         0.3121 
    106 H106       25.3386   31.6053    3.2329 H         1 UNK         0.0774 
    107 H107       24.0505   32.4308    1.2563 H         1 UNK         0.0815 
    108 H108       24.7852   31.1960    0.2417 H         1 UNK         0.0815 
    109 H109       23.7113   30.7343    1.5608 H         1 UNK         0.0815 
    110 H110       27.8034   31.0715    0.7749 H         1 UNK         0.2987 
    111 H111       28.7727   33.8986    1.0567 H         1 UNK         0.0949 
    112 H112       28.0732   33.3946   -1.2733 H         1 UNK         0.0806 
    113 H113       29.8194   33.5571   -1.1795 H         1 UNK         0.0806 
    114 H114       29.0943   31.9583   -1.2986 H         1 UNK         0.0806 
    115 H115       29.6979   30.4355    0.7828 H         1 UNK         0.3010 
    116 H116       32.5010   30.9620    1.3655 H         1 UNK         0.0829 
    117 H117       31.7431   29.2738   -0.3239 H         1 UNK         0.0813 
    118 H118       32.7271   28.5378    0.9285 H         1 UNK         0.0813 
    119 H119       30.9819   28.3346    0.9576 H         1 UNK         0.0813 
    120 H120       30.4600   31.4975    3.5419 H         1 UNK         0.3038 
    121 H121       30.3121   29.6415    5.5518 H         1 UNK         0.0769 
    122 H122       30.5505   32.6873    5.8334 H         1 UNK         0.0811 
    123 H123       29.8901   31.6015    7.0482 H         1 UNK         0.0811 
    124 H124       29.0653   31.7966    5.5141 H         1 UNK         0.0811 
    125 H125       33.1292   31.6140    4.8359 H         1 UNK         0.3204 
    126 H126       34.5162   31.1156    7.3448 H         1 UNK         0.0748 
    127 H127       36.3525   32.3625    6.2200 H         1 UNK         0.0771 
    128 H128       35.4885   32.3072    4.6905 H         1 UNK         0.0771 
    129 H129       34.8343   33.2245    6.0493 H         1 UNK         0.0771 
    130 H130       33.9992   29.1082    4.6073 H         1 UNK         0.2980 
    131 H131       34.8947   27.3001    3.8011 H         1 UNK         0.0545 
    132 H132       37.7939   26.4540    3.7602 H         1 UNK         0.3459 
    133 H133       38.5539   27.6450    2.7249 H         1 UNK         0.3459 
    134 H134       36.8404   27.0245    6.1486 H         1 UNK         0.0616 
    135 H135       35.1570   26.6152    6.2862 H         1 UNK         0.0616 
    136 H136       34.8986   23.0937    4.9799 H         1 UNK         0.0634 
    137 H137       34.4574   24.2347    6.2267 H         1 UNK         0.0634 
@<TRIPOS>BOND
     1    1    2 1    
     2    1   72 1    
     3    1   73 1    
     4    1   74 1    
     5    2    3 2    
     6    2    4 am   BACKBONE|DICT|INTERRES
     7    4    5 1    
     8    4   75 1    
     9    5    6 1    
    10    5   35 1    
    11    5   76 1    
    12    6    7 1    
    13    6   77 1    
    14    6   78 1    
    15    7    8 1    
    16    8    9 1    
    17    8   79 1    
    18    8   80 1    
    19    9   10 ar   
    20    9   14 ar   
    21   10   11 ar   
    22   10   81 1    
    23   11   12 ar   
    24   11   71 1    
    25   12   13 ar   
    26   12   82 1    
    27   13   14 ar   
    28   13   15 1    
    29   14   83 1    
    30   15   16 1    
    31   15   84 1    
    32   15   85 1    
    33   16   17 1    
    34   17   18 1    
    35   17   86 1    
    36   17   87 1    
    37   18   19 1    
    38   18   37 1    
    39   18   88 1    
    40   19   20 am   BACKBONE|DICT|INTERRES
    41   19   89 1    
    42   20   21 2    
    43   20   22 1    
    44   22   23 1    
    45   22   24 1    
    46   22   90 1    
    47   23   91 1    
    48   23   92 1    
    49   23   93 1    
    50   24   25 am   BACKBONE|DICT|INTERRES
    51   24   94 1    
    52   25   26 2    
    53   25   27 1    
    54   27   28 1    
    55   27   29 1    
    56   27   95 1    
    57   28   96 1    
    58   28   97 1    
    59   28   98 1    
    60   29   30 am   BACKBONE|DICT|INTERRES
    61   29   99 1    
    62   30   31 2    
    63   30   32 1    
    64   32   33 1    
    65   32   34 1    
    66   32  100 1    
    67   33  101 1    
    68   33  102 1    
    69   33  103 1    
    70   34   35 am   BACKBONE|DICT|INTERRES
    71   34  104 1    
    72   35   36 2    
    73   37   38 2    
    74   37   39 am   BACKBONE|DICT|INTERRES
    75   39   40 1    
    76   39  105 1    
    77   40   41 1    
    78   40   42 1    
    79   40  106 1    
    80   41  107 1    
    81   41  108 1    
    82   41  109 1    
    83   42   43 2    
    84   42   44 am   BACKBONE|DICT|INTERRES
    85   44   45 1    
    86   44  110 1    
    87   45   46 1    
    88   45   47 1    
    89   45  111 1    
    90   46  112 1    
    91   46  113 1    
    92   46  114 1    
    93   47   48 2    
    94   47   49 am   BACKBONE|DICT|INTERRES
    95   49   50 1    
    96   49  115 1    
    97   50   51 1    
    98   50   52 1    
    99   50  116 1    
   100   51  117 1    
   101   51  118 1    
   102   51  119 1    
   103   52   53 2    
   104   52   54 am   BACKBONE|DICT|INTERRES
   105   54   55 1    
   106   54  120 1    
   107   55   56 1    
   108   55   57 1    
   109   55  121 1    
   110   56  122 1    
   111   56  123 1    
   112   56  124 1    
   113   57   58 2    
   114   57   59 am   BACKBONE|DICT|INTERRES
   115   59   60 1    
   116   59  125 1    
   117   60   61 1    
   118   60   62 1    
   119   60  126 1    
   120   61  127 1    
   121   61  128 1    
   122   61  129 1    
   123   62   63 2    
   124   62   64 am   BACKBONE|DICT|INTERRES
   125   64   65 1    
   126   64  130 1    
   127   65   66 1    
   128   65   69 1    
   129   65  131 1    
   130   66   67 am   BACKBONE|DICT|INTERRES
   131   66   68 2    
   132   67  132 1    
   133   67  133 1    
   134   69   70 1    
   135   69  134 1    
   136   69  135 1    
   137   70   71 1    
   138   71  136 1    
   139   71  137 1    
@<TRIPOS>SUBSTRUCTURE
     1 UNK         1 GROUP             0       ****    0 ROOT    
