@<TRIPOS>MOLECULE
3R136
137   139    1
SMALL
USER_CHARGES


@<TRIPOS>ATOM
      1 CA         33.7201   25.8930   -0.5936 C.3       0 UNK        -0.1979 
      2 C          32.3365   25.4668   -0.1332 C.2       0 UNK         0.4864 
      3 O          31.4271   26.2959   -0.0990 O.2       0 UNK        -0.5359 
      4 N          32.1623   24.1790    0.1991 N.am      1 UNK        -0.4318 
      5 CA         30.9282   23.5643    0.7197 C.3       1 UNK         0.0824 
      6 C6         31.1086   22.0497    0.9865 C.3       12 UNK        -0.0944 
      7 S7         32.4655   21.6878    2.1504 S.3       12 UNK        -0.2672 
      8 C8         31.5564   21.1038    3.6162 C.3       12 UNK         0.0333 
      9 C9         30.9070   22.2508    4.3767 C.ar      12 UNK        -0.0807 
     10 C10        31.6810   23.0449    5.2260 C.ar      12 UNK        -0.0894 
     11 C11        31.1005   24.0898    5.9498 C.ar      12 UNK        -0.0804 
     12 C12        29.7302   24.3398    5.8142 C.ar      12 UNK        -0.0824 
     13 C13        28.9365   23.5397    4.9828 C.ar      12 UNK        -0.0762 
     14 C14        29.5350   22.4966    4.2654 C.ar      12 UNK        -0.0782 
     15 C15        27.4290   23.7730    4.9075 C.3       12 UNK         0.0230 
     16 S16        26.8327   23.9024    3.1900 S.3       12 UNK        -0.2608 
     17 C17        25.5372   25.1897    3.2838 C.3       12 UNK        -0.0989 
     18 CA         26.0713   26.6072    3.6240 C.3       5 UNK         0.0716 
     19 N          27.3032   26.9267    2.9027 N.am      5 UNK        -0.4135 
     20 C          28.2399   27.7686    3.3481 C.2       4 UNK         0.5031 
     21 O          28.1726   28.3481    4.4329 O.2       4 UNK        -0.5229 
     22 CA         29.4636   27.9974    2.4465 C.3       4 UNK         0.0329 
     23 CB         30.6545   27.1866    2.9730 C.3       4 UNK        -0.2001 
     24 N          29.2960   27.7110    1.0134 N.am      4 UNK        -0.4303 
     25 C          28.3683   28.2272    0.1928 C.2       3 UNK         0.5044 
     26 O          27.3906   28.8677    0.5769 O.2       3 UNK        -0.5152 
     27 CA         28.5518   27.9903   -1.3123 C.3       3 UNK         0.0319 
     28 CB         29.6052   28.9554   -1.8810 C.3       3 UNK        -0.2001 
     29 N          28.9645   26.6170   -1.5974 N.am      3 UNK        -0.4354 
     30 C          28.2123   25.7021   -2.2254 C.2       2 UNK         0.4964 
     31 O          27.0748   25.9190   -2.6451 O.2       2 UNK        -0.5047 
     32 CA         28.8265   24.3040   -2.4405 C.3       2 UNK         0.0288 
     33 CB         29.3887   24.1792   -3.8663 C.3       2 UNK        -0.2113 
     34 N          29.8813   23.9676   -1.4810 N.am      2 UNK        -0.4145 
     35 C          29.6828   23.7846   -0.1674 C.2       1 UNK         0.5006 
     36 O          28.5689   23.8025    0.3527 O.2       1 UNK        -0.5103 
     37 C          24.9782   27.6843    3.4342 C.2       5 UNK         0.5055 
     38 O          23.9713   27.6272    4.1428 O.2       5 UNK        -0.5220 
     39 N          25.1686   28.6280    2.4979 N.am      6 UNK        -0.4450 
     40 CA         24.2215   29.7029    2.1893 C.3       6 UNK         0.0367 
     41 CB         23.4892   29.3800    0.8757 C.3       6 UNK        -0.1929 
     42 C          24.9087   31.0742    2.1064 C.2       6 UNK         0.5070 
     43 O          24.3832   32.0424    2.6572 O.2       6 UNK        -0.5237 
     44 N          26.0555   31.1443    1.4216 N.am      7 UNK        -0.4739 
     45 CA         26.8715   32.3472    1.2578 C.3       7 UNK         0.0276 
     46 CB         27.3963   32.3838   -0.1873 C.3       7 UNK        -0.1927 
     47 C          28.0456   32.3296    2.2460 C.2       7 UNK         0.5013 
     48 O          28.4080   31.2703    2.7596 O.2       7 UNK        -0.5193 
     49 N          28.6608   33.4973    2.4658 N.am      8 UNK        -0.4253 
     50 CA         29.7958   33.6947    3.3746 C.3       8 UNK         0.0242 
     51 CB         29.8249   35.1713    3.8152 C.3       8 UNK        -0.2000 
     52 C          31.1443   33.2244    2.7838 C.2       8 UNK         0.4948 
     53 O          32.1242   33.9716    2.8261 O.2       8 UNK        -0.5275 
     54 N          31.1816   31.9988    2.2461 N.am      9 UNK        -0.4246 
     55 CA         32.4042   31.3244    1.8064 C.3       9 UNK         0.0261 
     56 CB         32.0766   30.3486    0.6648 C.3       9 UNK        -0.1959 
     57 C          33.0318   30.5872    2.9980 C.2       9 UNK         0.5033 
     58 O          32.3054   30.0136    3.8114 O.2       9 UNK        -0.5390 
     59 N          34.3674   30.5857    3.0743 N.am      10 UNK        -0.4215 
     60 CA         35.1519   30.0684    4.2036 C.3       10 UNK         0.0240 
     61 CB         36.5117   30.7939    4.2283 C.3       10 UNK        -0.1982 
     62 C          35.3065   28.5307    4.2333 C.2       10 UNK         0.4970 
     63 O          36.3606   28.0410    4.6422 O.2       10 UNK        -0.4916 
     64 N          34.2691   27.7969    3.8078 N.am      11 UNK        -0.4279 
     65 CA         34.1707   26.3222    3.8272 C.3       11 UNK         0.1003 
     66 C          35.2123   25.5665    2.9435 C.2       11 UNK         0.5709 
     67 N          35.9199   26.2293    2.0364 N.am      11 UNK        -0.7358 
     68 O          35.3580   24.3516    3.0504 O.2       11 UNK        -0.4999 
     69 C69        34.0881   25.7592    5.2755 C.3       12 UNK        -0.0954 
     70 S70        32.6438   26.4065    6.1882 S.3       12 UNK        -0.2268 
     71 C71        31.9377   24.9020    6.9305 C.3       12 UNK         0.0203 
     72 H72        34.0225   26.8005   -0.0722 H         1 UNK         0.0888 
     73 H73        34.4680   25.1243   -0.4004 H         1 UNK         0.0888 
     74 H74        33.7104   26.1032   -1.6625 H         1 UNK         0.0888 
     75 H75        32.9549   23.5534    0.1575 H         1 UNK         0.3017 
     76 H76        30.7152   24.0500    1.6741 H         1 UNK         0.0873 
     77 H77        31.3197   21.5219    0.0543 H         1 UNK         0.0745 
     78 H78        30.1840   21.6153    1.3719 H         1 UNK         0.0745 
     79 H79        30.8154   20.3591    3.3216 H         1 UNK         0.0705 
     80 H80        32.2555   20.5866    4.2751 H         1 UNK         0.0705 
     81 H81        32.7353   22.8322    5.3330 H         1 UNK         0.1334 
     82 H82        29.2778   25.1413    6.3824 H         1 UNK         0.1417 
     83 H83        28.9268   21.8711    3.6262 H         1 UNK         0.1562 
     84 H84        27.1595   24.6690    5.4655 H         1 UNK         0.0748 
     85 H85        26.9153   22.9447    5.3968 H         1 UNK         0.0748 
     86 H86        24.7867   24.8805    4.0139 H         1 UNK         0.0940 
     87 H87        25.0292   25.1986    2.3172 H         1 UNK         0.0940 
     88 H88        26.3007   26.6158    4.6909 H         1 UNK         0.0703 
     89 H89        27.4483   26.4584    2.0199 H         1 UNK         0.3081 
     90 H90        29.7174   29.0539    2.5321 H         1 UNK         0.0719 
     91 H91        30.8563   27.4292    4.0170 H         1 UNK         0.0809 
     92 H92        30.4733   26.1130    2.9150 H         1 UNK         0.0809 
     93 H93        31.5581   27.4134    2.4092 H         1 UNK         0.0809 
     94 H94        30.0589   27.1842    0.5899 H         1 UNK         0.2990 
     95 H95        27.5981   28.2136   -1.7950 H         1 UNK         0.0690 
     96 H96        29.6765   28.8635   -2.9648 H         1 UNK         0.0788 
     97 H97        30.5957   28.7642   -1.4662 H         1 UNK         0.0788 
     98 H98        29.3517   29.9926   -1.6612 H         1 UNK         0.0788 
     99 H99        29.8802   26.3447   -1.2514 H         1 UNK         0.2993 
    100 H100       28.0209   23.5757   -2.3231 H         1 UNK         0.0949 
    101 H101       29.7532   23.1707   -4.0630 H         1 UNK         0.0767 
    102 H102       28.6192   24.3940   -4.6094 H         1 UNK         0.0767 
    103 H103       30.2110   24.8750   -4.0384 H         1 UNK         0.0767 
    104 H104       30.8273   23.9341   -1.8318 H         1 UNK         0.3013 
    105 H105       26.0359   28.6241    1.9681 H         1 UNK         0.3121 
    106 H106       23.4730   29.7799    2.9810 H         1 UNK         0.0774 
    107 H107       24.1850   29.2665    0.0433 H         1 UNK         0.0815 
    108 H108       22.7891   30.1741    0.6124 H         1 UNK         0.0815 
    109 H109       22.9155   28.4570    0.9603 H         1 UNK         0.0815 
    110 H110       26.4742   30.2896    1.0577 H         1 UNK         0.2987 
    111 H111       26.2710   33.2410    1.4409 H         1 UNK         0.0949 
    112 H112       28.0357   31.5275   -0.4023 H         1 UNK         0.0806 
    113 H113       26.5768   32.3771   -0.9062 H         1 UNK         0.0806 
    114 H114       27.9826   33.2842   -0.3742 H         1 UNK         0.0806 
    115 H115       28.3386   34.3162    1.9699 H         1 UNK         0.3010 
    116 H116       29.6264   33.0922    4.2700 H         1 UNK         0.0829 
    117 H117       30.6130   35.3466    4.5489 H         1 UNK         0.0813 
    118 H118       30.0081   35.8401    2.9733 H         1 UNK         0.0813 
    119 H119       28.8843   35.4660    4.2809 H         1 UNK         0.0813 
    120 H120       30.3432   31.4313    2.3272 H         1 UNK         0.3038 
    121 H121       33.1121   32.0655    1.4287 H         1 UNK         0.0769 
    122 H122       31.6073   30.8639   -0.1733 H         1 UNK         0.0811 
    123 H123       31.4055   29.5550    0.9866 H         1 UNK         0.0811 
    124 H124       32.9811   29.8709    0.2862 H         1 UNK         0.0811 
    125 H125       34.8927   31.0366    2.3384 H         1 UNK         0.3204 
    126 H126       34.6281   30.3338    5.1245 H         1 UNK         0.0748 
    127 H127       37.0905   30.5196    5.1114 H         1 UNK         0.0771 
    128 H128       37.1149   30.5490    3.3531 H         1 UNK         0.0771 
    129 H129       36.3844   31.8763    4.2574 H         1 UNK         0.0771 
    130 H130       33.4242   28.2982    3.5606 H         1 UNK         0.2980 
    131 H131       33.2222   26.0863    3.3473 H         1 UNK         0.0545 
    132 H132       36.5888   25.7289    1.4734 H         1 UNK         0.3459 
    133 H133       35.8312   27.2280    1.9499 H         1 UNK         0.3459 
    134 H134       34.9904   26.0035    5.8375 H         1 UNK         0.0616 
    135 H135       34.0353   24.6718    5.2615 H         1 UNK         0.0616 
    136 H136       32.7391   24.2903    7.3478 H         1 UNK         0.0634 
    137 H137       31.3172   25.1976    7.7777 H         1 UNK         0.0634 
@<TRIPOS>BOND
     1    1    2 1    
     2    1   72 1    
     3    1   73 1    
     4    1   74 1    
     5    2    3 2    
     6    2    4 am   BACKBONE|DICT|INTERRES
     7    4    5 1    
     8    4   75 1    
     9    5    6 1    
    10    5   35 1    
    11    5   76 1    
    12    6    7 1    
    13    6   77 1    
    14    6   78 1    
    15    7    8 1    
    16    8    9 1    
    17    8   79 1    
    18    8   80 1    
    19    9   10 ar   
    20    9   14 ar   
    21   10   11 ar   
    22   10   81 1    
    23   11   12 ar   
    24   11   71 1    
    25   12   13 ar   
    26   12   82 1    
    27   13   14 ar   
    28   13   15 1    
    29   14   83 1    
    30   15   16 1    
    31   15   84 1    
    32   15   85 1    
    33   16   17 1    
    34   17   18 1    
    35   17   86 1    
    36   17   87 1    
    37   18   19 1    
    38   18   37 1    
    39   18   88 1    
    40   19   20 am   BACKBONE|DICT|INTERRES
    41   19   89 1    
    42   20   21 2    
    43   20   22 1    
    44   22   23 1    
    45   22   24 1    
    46   22   90 1    
    47   23   91 1    
    48   23   92 1    
    49   23   93 1    
    50   24   25 am   BACKBONE|DICT|INTERRES
    51   24   94 1    
    52   25   26 2    
    53   25   27 1    
    54   27   28 1    
    55   27   29 1    
    56   27   95 1    
    57   28   96 1    
    58   28   97 1    
    59   28   98 1    
    60   29   30 am   BACKBONE|DICT|INTERRES
    61   29   99 1    
    62   30   31 2    
    63   30   32 1    
    64   32   33 1    
    65   32   34 1    
    66   32  100 1    
    67   33  101 1    
    68   33  102 1    
    69   33  103 1    
    70   34   35 am   BACKBONE|DICT|INTERRES
    71   34  104 1    
    72   35   36 2    
    73   37   38 2    
    74   37   39 am   BACKBONE|DICT|INTERRES
    75   39   40 1    
    76   39  105 1    
    77   40   41 1    
    78   40   42 1    
    79   40  106 1    
    80   41  107 1    
    81   41  108 1    
    82   41  109 1    
    83   42   43 2    
    84   42   44 am   BACKBONE|DICT|INTERRES
    85   44   45 1    
    86   44  110 1    
    87   45   46 1    
    88   45   47 1    
    89   45  111 1    
    90   46  112 1    
    91   46  113 1    
    92   46  114 1    
    93   47   48 2    
    94   47   49 am   BACKBONE|DICT|INTERRES
    95   49   50 1    
    96   49  115 1    
    97   50   51 1    
    98   50   52 1    
    99   50  116 1    
   100   51  117 1    
   101   51  118 1    
   102   51  119 1    
   103   52   53 2    
   104   52   54 am   BACKBONE|DICT|INTERRES
   105   54   55 1    
   106   54  120 1    
   107   55   56 1    
   108   55   57 1    
   109   55  121 1    
   110   56  122 1    
   111   56  123 1    
   112   56  124 1    
   113   57   58 2    
   114   57   59 am   BACKBONE|DICT|INTERRES
   115   59   60 1    
   116   59  125 1    
   117   60   61 1    
   118   60   62 1    
   119   60  126 1    
   120   61  127 1    
   121   61  128 1    
   122   61  129 1    
   123   62   63 2    
   124   62   64 am   BACKBONE|DICT|INTERRES
   125   64   65 1    
   126   64  130 1    
   127   65   66 1    
   128   65   69 1    
   129   65  131 1    
   130   66   67 am   BACKBONE|DICT|INTERRES
   131   66   68 2    
   132   67  132 1    
   133   67  133 1    
   134   69   70 1    
   135   69  134 1    
   136   69  135 1    
   137   70   71 1    
   138   71  136 1    
   139   71  137 1    
@<TRIPOS>SUBSTRUCTURE
     1 UNK         1 GROUP             0       ****    0 ROOT    
