@<TRIPOS>MOLECULE
3R136
137   139    1
SMALL
USER_CHARGES


@<TRIPOS>ATOM
      1 CA         24.8604   22.2687    0.8987 C.3       0 UNK        -0.1979 
      2 C          25.9774   22.1069   -0.1221 C.2       0 UNK         0.4864 
      3 O          25.7031   21.8395   -1.2934 O.2       0 UNK        -0.5359 
      4 N          27.2330   22.2595    0.3175 N.am      1 UNK        -0.4318 
      5 CA         28.4290   22.2435   -0.5295 C.3       1 UNK         0.0824 
      6 C6         29.6960   21.8846    0.2969 C.3       12 UNK        -0.0944 
      7 S7         30.2575   23.1705    1.4668 S.3       12 UNK        -0.2672 
      8 C8         29.6695   22.5465    3.0776 C.3       12 UNK         0.0333 
      9 C9         29.9609   23.5371    4.2017 C.ar      12 UNK        -0.0807 
     10 C10        31.2812   23.9127    4.4661 C.ar      12 UNK        -0.0894 
     11 C11        31.5741   24.8208    5.4850 C.ar      12 UNK        -0.0804 
     12 C12        30.5339   25.3484    6.2546 C.ar      12 UNK        -0.0824 
     13 C13        29.2021   24.9952    6.0023 C.ar      12 UNK        -0.0762 
     14 C14        28.9253   24.0794    4.9766 C.ar      12 UNK        -0.0782 
     15 C15        28.0701   25.5479    6.8729 C.3       12 UNK         0.0230 
     16 S16        28.2480   27.3255    7.2861 S.3       12 UNK        -0.2608 
     17 C17        26.9679   28.1477    6.2723 C.3       12 UNK        -0.0989 
     18 CA         27.5343   28.7253    4.9538 C.3       5 UNK         0.0716 
     19 N          28.1042   27.6601    4.1249 N.am      5 UNK        -0.4135 
     20 C          28.6262   27.7802    2.9002 C.2       4 UNK         0.5031 
     21 O          28.7712   28.8547    2.3186 O.2       4 UNK        -0.5229 
     22 CA         28.9225   26.4484    2.2027 C.3       4 UNK         0.0329 
     23 CB         27.5995   25.7066    1.9293 C.3       4 UNK        -0.2001 
     24 N          29.6868   26.5280    0.9561 N.am      4 UNK        -0.4303 
     25 C          30.9261   27.0230    0.8233 C.2       3 UNK         0.5044 
     26 O          31.5138   27.6516    1.7043 O.2       3 UNK        -0.5152 
     27 CA         31.6688   26.7306   -0.4953 C.3       3 UNK         0.0319 
     28 CB         33.0952   26.2235   -0.2151 C.3       3 UNK        -0.2001 
     29 N          30.9930   25.7210   -1.3145 N.am      3 UNK        -0.4354 
     30 C          30.3362   25.9549   -2.4576 C.2       2 UNK         0.4964 
     31 O          30.1968   27.0737   -2.9521 O.2       2 UNK        -0.5047 
     32 CA         29.7359   24.7337   -3.1852 C.3       2 UNK         0.0288 
     33 CB         30.6513   24.2990   -4.3419 C.3       2 UNK        -0.2113 
     34 N          29.4717   23.5733   -2.3225 N.am      2 UNK        -0.4145 
     35 C          28.5698   23.5615   -1.3310 C.2       1 UNK         0.5006 
     36 O          27.8959   24.5509   -1.0317 O.2       1 UNK        -0.5103 
     37 C          26.4682   29.5684    4.2146 C.2       5 UNK         0.5055 
     38 O          26.4225   30.7844    4.4022 O.2       5 UNK        -0.5220 
     39 N          25.6806   28.9257    3.3374 N.am      6 UNK        -0.4450 
     40 CA         24.7201   29.5669    2.4311 C.3       6 UNK         0.0367 
     41 CB         23.8531   28.4810    1.7733 C.3       6 UNK        -0.1929 
     42 C          25.3708   30.4568    1.3509 C.2       6 UNK         0.5070 
     43 O          24.7121   31.3659    0.8468 O.2       6 UNK        -0.5237 
     44 N          26.6460   30.2004    1.0310 N.am      7 UNK        -0.4739 
     45 CA         27.4918   30.9914    0.1339 C.3       7 UNK         0.0276 
     46 CB         28.2154   30.0361   -0.8350 C.3       7 UNK        -0.1927 
     47 C          28.4866   31.8600    0.9333 C.2       7 UNK         0.5013 
     48 O          29.5249   32.2455    0.3946 O.2       7 UNK        -0.5193 
     49 N          28.1496   32.1513    2.1996 N.am      8 UNK        -0.4253 
     50 CA         28.8828   32.9716    3.1693 C.3       8 UNK         0.0242 
     51 CB         29.1018   34.4093    2.6475 C.3       8 UNK        -0.2000 
     52 C          30.1704   32.3253    3.7192 C.2       8 UNK         0.4948 
     53 O          31.0229   33.0542    4.2288 O.2       8 UNK        -0.5275 
     54 N          30.2651   30.9859    3.6667 N.am      9 UNK        -0.4246 
     55 CA         31.3182   30.1437    4.2505 C.3       9 UNK         0.0261 
     56 CB         31.2970   30.2190    5.7941 C.3       9 UNK        -0.1959 
     57 C          32.7091   30.4492    3.6696 C.2       9 UNK         0.5033 
     58 O          33.5631   31.0167    4.3550 O.2       9 UNK        -0.5390 
     59 N          32.9385   30.0230    2.4223 N.am      10 UNK        -0.4215 
     60 CA         34.2267   30.1173    1.7241 C.3       10 UNK         0.0240 
     61 CB         33.9653   30.2104    0.2091 C.3       10 UNK        -0.1982 
     62 C          35.1538   28.9419    2.1031 C.2       10 UNK         0.4970 
     63 O          35.7613   28.3205    1.2301 O.2       10 UNK        -0.4916 
     64 N          35.2106   28.6380    3.4032 N.am      11 UNK        -0.4279 
     65 CA         35.8148   27.4328    3.9878 C.3       11 UNK         0.1003 
     66 C          37.3632   27.4828    4.1295 C.2       11 UNK         0.5709 
     67 N          38.0228   28.6034    3.8603 N.am      11 UNK        -0.7358 
     68 O          37.9799   26.4801    4.4821 O.2       11 UNK        -0.4999 
     69 C69        35.1295   27.0744    5.3353 C.3       12 UNK        -0.0954 
     70 S70        33.3147   26.9285    5.1744 S.3       12 UNK        -0.2268 
     71 C71        33.0141   25.2329    5.7512 C.3       12 UNK         0.0203 
     72 H72        24.1996   23.0835    0.6037 H         1 UNK         0.0888 
     73 H73        24.2701   21.3546    0.9579 H         1 UNK         0.0888 
     74 H74        25.2454   22.4890    1.8943 H         1 UNK         0.0888 
     75 H75        27.3923   22.5049    1.2818 H         1 UNK         0.3017 
     76 H76        28.2919   21.4485   -1.2662 H         1 UNK         0.0873 
     77 H77        29.5324   20.9526    0.8406 H         1 UNK         0.0745 
     78 H78        30.5280   21.6748   -0.3774 H         1 UNK         0.0745 
     79 H79        28.6011   22.3376    3.0167 H         1 UNK         0.0705 
     80 H80        30.1623   21.5986    3.2984 H         1 UNK         0.0705 
     81 H81        32.0819   23.5023    3.8657 H         1 UNK         0.1334 
     82 H82        30.7682   26.0421    7.0505 H         1 UNK         0.1417 
     83 H83        27.9033   23.7811    4.7852 H         1 UNK         0.1562 
     84 H84        28.0630   24.9847    7.8070 H         1 UNK         0.0748 
     85 H85        27.0997   25.3676    6.4086 H         1 UNK         0.0748 
     86 H86        26.5479   28.9512    6.8812 H         1 UNK         0.0940 
     87 H87        26.1423   27.4595    6.0814 H         1 UNK         0.0940 
     88 H88        28.3490   29.4061    5.1995 H         1 UNK         0.0703 
     89 H89        28.0839   26.7412    4.5411 H         1 UNK         0.3081 
     90 H90        29.5284   25.8643    2.8936 H         1 UNK         0.0719 
     91 H91        27.0009   26.2189    1.1746 H         1 UNK         0.0809 
     92 H92        27.7838   24.6965    1.5746 H         1 UNK         0.0809 
     93 H93        26.9843   25.6062    2.8236 H         1 UNK         0.0809 
     94 H94        29.2804   26.0538    0.1608 H         1 UNK         0.2990 
     95 H95        31.7401   27.6763   -1.0359 H         1 UNK         0.0690 
     96 H96        33.6469   26.0577   -1.1405 H         1 UNK         0.0788 
     97 H97        33.0862   25.2874    0.3450 H         1 UNK         0.0788 
     98 H98        33.6641   26.9429    0.3717 H         1 UNK         0.0788 
     99 H99        31.0374   24.7707   -0.9739 H         1 UNK         0.2993 
    100 H100       28.7813   25.0549   -3.6081 H         1 UNK         0.0949 
    101 H101       30.1970   23.5018   -4.9308 H         1 UNK         0.0767 
    102 H102       30.8438   25.1305   -5.0218 H         1 UNK         0.0767 
    103 H103       31.6173   23.9436   -3.9807 H         1 UNK         0.0767 
    104 H104       29.9995   22.7345   -2.5180 H         1 UNK         0.3013 
    105 H105       25.7802   27.9257    3.2489 H         1 UNK         0.3121 
    106 H106       24.0708   30.2078    3.0316 H         1 UNK         0.0774 
    107 H107       24.4510   27.7963    1.1703 H         1 UNK         0.0815 
    108 H108       23.1052   28.9253    1.1148 H         1 UNK         0.0815 
    109 H109       23.3161   27.8940    2.5187 H         1 UNK         0.0815 
    110 H110       27.1454   29.4741    1.5364 H         1 UNK         0.2987 
    111 H111       26.8776   31.6739   -0.4572 H         1 UNK         0.0949 
    112 H112       28.9081   29.3765   -0.3111 H         1 UNK         0.0806 
    113 H113       27.5077   29.4115   -1.3800 H         1 UNK         0.0806 
    114 H114       28.7927   30.5901   -1.5761 H         1 UNK         0.0806 
    115 H115       27.2931   31.7441    2.5554 H         1 UNK         0.3010 
    116 H116       28.2179   33.0475    4.0311 H         1 UNK         0.0829 
    117 H117       29.8341   34.4413    1.8405 H         1 UNK         0.0813 
    118 H118       28.1734   34.8447    2.2782 H         1 UNK         0.0813 
    119 H119       29.4690   35.0618    3.4407 H         1 UNK         0.0813 
    120 H120       29.5532   30.4755    3.1513 H         1 UNK         0.3038 
    121 H121       31.0842   29.1135    3.9792 H         1 UNK         0.0769 
    122 H122       32.0531   29.5606    6.2232 H         1 UNK         0.0811 
    123 H123       31.5049   31.2254    6.1581 H         1 UNK         0.0811 
    124 H124       30.3369   29.9077    6.2021 H         1 UNK         0.0811 
    125 H125       32.2427   29.4129    1.9978 H         1 UNK         0.3204 
    126 H126       34.7335   31.0354    2.0284 H         1 UNK         0.0748 
    127 H127       34.8975   30.3307   -0.3444 H         1 UNK         0.0771 
    128 H128       33.4709   29.3167   -0.1711 H         1 UNK         0.0771 
    129 H129       33.3350   31.0671   -0.0306 H         1 UNK         0.0771 
    130 H130       34.7084   29.2363    4.0471 H         1 UNK         0.2980 
    131 H131       35.6152   26.6095    3.2991 H         1 UNK         0.0545 
    132 H132       39.0264   28.6213    3.9511 H         1 UNK         0.3459 
    133 H133       37.5256   29.4273    3.5631 H         1 UNK         0.3459 
    134 H134       35.5312   26.1407    5.7327 H         1 UNK         0.0616 
    135 H135       35.3401   27.8398    6.0844 H         1 UNK         0.0616 
    136 H136       33.7056   24.5533    5.2507 H         1 UNK         0.0634 
    137 H137       33.2273   25.1693    6.8192 H         1 UNK         0.0634 
@<TRIPOS>BOND
     1    1    2 1    
     2    1   72 1    
     3    1   73 1    
     4    1   74 1    
     5    2    3 2    
     6    2    4 am   BACKBONE|DICT|INTERRES
     7    4    5 1    
     8    4   75 1    
     9    5    6 1    
    10    5   35 1    
    11    5   76 1    
    12    6    7 1    
    13    6   77 1    
    14    6   78 1    
    15    7    8 1    
    16    8    9 1    
    17    8   79 1    
    18    8   80 1    
    19    9   10 ar   
    20    9   14 ar   
    21   10   11 ar   
    22   10   81 1    
    23   11   12 ar   
    24   11   71 1    
    25   12   13 ar   
    26   12   82 1    
    27   13   14 ar   
    28   13   15 1    
    29   14   83 1    
    30   15   16 1    
    31   15   84 1    
    32   15   85 1    
    33   16   17 1    
    34   17   18 1    
    35   17   86 1    
    36   17   87 1    
    37   18   19 1    
    38   18   37 1    
    39   18   88 1    
    40   19   20 am   BACKBONE|DICT|INTERRES
    41   19   89 1    
    42   20   21 2    
    43   20   22 1    
    44   22   23 1    
    45   22   24 1    
    46   22   90 1    
    47   23   91 1    
    48   23   92 1    
    49   23   93 1    
    50   24   25 am   BACKBONE|DICT|INTERRES
    51   24   94 1    
    52   25   26 2    
    53   25   27 1    
    54   27   28 1    
    55   27   29 1    
    56   27   95 1    
    57   28   96 1    
    58   28   97 1    
    59   28   98 1    
    60   29   30 am   BACKBONE|DICT|INTERRES
    61   29   99 1    
    62   30   31 2    
    63   30   32 1    
    64   32   33 1    
    65   32   34 1    
    66   32  100 1    
    67   33  101 1    
    68   33  102 1    
    69   33  103 1    
    70   34   35 am   BACKBONE|DICT|INTERRES
    71   34  104 1    
    72   35   36 2    
    73   37   38 2    
    74   37   39 am   BACKBONE|DICT|INTERRES
    75   39   40 1    
    76   39  105 1    
    77   40   41 1    
    78   40   42 1    
    79   40  106 1    
    80   41  107 1    
    81   41  108 1    
    82   41  109 1    
    83   42   43 2    
    84   42   44 am   BACKBONE|DICT|INTERRES
    85   44   45 1    
    86   44  110 1    
    87   45   46 1    
    88   45   47 1    
    89   45  111 1    
    90   46  112 1    
    91   46  113 1    
    92   46  114 1    
    93   47   48 2    
    94   47   49 am   BACKBONE|DICT|INTERRES
    95   49   50 1    
    96   49  115 1    
    97   50   51 1    
    98   50   52 1    
    99   50  116 1    
   100   51  117 1    
   101   51  118 1    
   102   51  119 1    
   103   52   53 2    
   104   52   54 am   BACKBONE|DICT|INTERRES
   105   54   55 1    
   106   54  120 1    
   107   55   56 1    
   108   55   57 1    
   109   55  121 1    
   110   56  122 1    
   111   56  123 1    
   112   56  124 1    
   113   57   58 2    
   114   57   59 am   BACKBONE|DICT|INTERRES
   115   59   60 1    
   116   59  125 1    
   117   60   61 1    
   118   60   62 1    
   119   60  126 1    
   120   61  127 1    
   121   61  128 1    
   122   61  129 1    
   123   62   63 2    
   124   62   64 am   BACKBONE|DICT|INTERRES
   125   64   65 1    
   126   64  130 1    
   127   65   66 1    
   128   65   69 1    
   129   65  131 1    
   130   66   67 am   BACKBONE|DICT|INTERRES
   131   66   68 2    
   132   67  132 1    
   133   67  133 1    
   134   69   70 1    
   135   69  134 1    
   136   69  135 1    
   137   70   71 1    
   138   71  136 1    
   139   71  137 1    
@<TRIPOS>SUBSTRUCTURE
     1 UNK         1 GROUP             0       ****    0 ROOT    
