@<TRIPOS>MOLECULE
3R136
137   139    1
SMALL
USER_CHARGES


@<TRIPOS>ATOM
      1 CA         30.3551   20.2869   -1.3136 C.3       0 UNK        -0.1979 
      2 C          30.3837   21.7320   -1.7879 C.2       0 UNK         0.4864 
      3 O          30.3651   21.9844   -2.9938 O.2       0 UNK        -0.5359 
      4 N          30.4067   22.6890   -0.8512 N.am      1 UNK        -0.4318 
      5 CA         30.4820   24.1361   -1.0958 C.3       1 UNK         0.0824 
      6 C6         31.0800   24.8896    0.1202 C.3       12 UNK        -0.0944 
      7 S7         32.7972   24.4167    0.5106 S.3       12 UNK        -0.2672 
      8 C8         32.5930   23.1353    1.7900 C.3       12 UNK         0.0333 
      9 C9         31.9917   23.6638    3.0862 C.ar      12 UNK        -0.0807 
     10 C10        32.7729   24.4204    3.9646 C.ar      12 UNK        -0.0894 
     11 C11        32.2608   24.8326    5.1995 C.ar      12 UNK        -0.0804 
     12 C12        30.9470   24.4968    5.5442 C.ar      12 UNK        -0.0824 
     13 C13        30.1505   23.7518    4.6689 C.ar      12 UNK        -0.0762 
     14 C14        30.6786   23.3384    3.4420 C.ar      12 UNK        -0.0782 
     15 C15        28.7389   23.3427    5.0674 C.3       12 UNK         0.0230 
     16 S16        27.4664   24.3079    4.1945 S.3       12 UNK        -0.2608 
     17 C17        27.6170   25.9420    4.9966 C.3       12 UNK        -0.0989 
     18 CA         28.3275   26.9768    4.0869 C.3       5 UNK         0.0716 
     19 N          27.6846   27.1443    2.7724 N.am      5 UNK        -0.4135 
     20 C          26.4517   27.5951    2.4957 C.2       4 UNK         0.5031 
     21 O          25.6635   28.0336    3.3349 O.2       4 UNK        -0.5229 
     22 CA         26.0235   27.5258    1.0246 C.3       4 UNK         0.0329 
     23 CB         26.8990   28.4253    0.1341 C.3       4 UNK        -0.2001 
     24 N          26.0585   26.1479    0.5341 N.am      4 UNK        -0.4303 
     25 C          25.1265   25.2204    0.8100 C.2       3 UNK         0.5044 
     26 O          24.1336   25.4455    1.5044 O.2       3 UNK        -0.5152 
     27 CA         25.3241   23.8064    0.2145 C.3       3 UNK         0.0319 
     28 CB         23.9888   23.0802   -0.0552 C.3       3 UNK        -0.2001 
     29 N          26.1831   23.7812   -0.9762 N.am      3 UNK        -0.4354 
     30 C          25.9915   24.4224   -2.1409 C.2       2 UNK         0.4964 
     31 O          24.9483   25.0075   -2.4353 O.2       2 UNK        -0.5047 
     32 CA         27.1800   24.4483   -3.1297 C.3       2 UNK         0.0288 
     33 CB         27.2716   25.7969   -3.8754 C.3       2 UNK        -0.2113 
     34 N          28.4877   24.1174   -2.5372 N.am      2 UNK        -0.4145 
     35 C          29.1056   24.7122   -1.5040 C.2       1 UNK         0.5006 
     36 O          28.6035   25.6328   -0.8533 O.2       1 UNK        -0.5103 
     37 C          28.5803   28.3021    4.8403 C.2       5 UNK         0.5055 
     38 O          29.7144   28.5678    5.2352 O.2       5 UNK        -0.5220 
     39 N          27.5345   29.1167    5.0208 N.am      6 UNK        -0.4450 
     40 CA         27.5716   30.4144    5.6999 C.3       6 UNK         0.0367 
     41 CB         26.1357   30.8321    6.0554 C.3       6 UNK        -0.1929 
     42 C          28.2662   31.5186    4.8825 C.2       6 UNK         0.5070 
     43 O          28.6762   32.5245    5.4630 O.2       6 UNK        -0.5237 
     44 N          28.3820   31.3249    3.5615 N.am      7 UNK        -0.4739 
     45 CA         29.1178   32.2033    2.6528 C.3       7 UNK         0.0276 
     46 CB         28.7926   31.8115    1.2023 C.3       7 UNK        -0.1927 
     47 C          30.6291   32.0996    2.9028 C.2       7 UNK         0.5013 
     48 O          31.1391   30.9863    3.0458 O.2       7 UNK        -0.5193 
     49 N          31.3261   33.2442    2.8929 N.am      8 UNK        -0.4253 
     50 CA         32.7659   33.3641    3.1662 C.3       8 UNK         0.0242 
     51 CB         33.1643   34.8486    3.1392 C.3       8 UNK        -0.2000 
     52 C          33.6762   32.5473    2.2291 C.2       8 UNK         0.4948 
     53 O          34.7792   32.1798    2.6340 O.2       8 UNK        -0.5275 
     54 N          33.1927   32.2556    1.0127 N.am      9 UNK        -0.4246 
     55 CA         33.8326   31.3588    0.0471 C.3       9 UNK         0.0261 
     56 CB         33.1186   31.4849   -1.3087 C.3       9 UNK        -0.1959 
     57 C          33.8629   29.8868    0.5045 C.2       9 UNK         0.5033 
     58 O          34.7591   29.1534    0.0848 O.2       9 UNK        -0.5390 
     59 N          32.9008   29.4850    1.3470 N.am      10 UNK        -0.4215 
     60 CA         32.8606   28.1822    2.0054 C.3       10 UNK         0.0240 
     61 CB         31.3977   27.7397    2.1793 C.3       10 UNK        -0.1982 
     62 C          33.5905   28.2861    3.3513 C.2       10 UNK         0.4970 
     63 O          34.6220   27.6378    3.5300 O.2       10 UNK        -0.4916 
     64 N          33.0660   29.1396    4.2389 N.am      11 UNK        -0.4279 
     65 CA         33.6329   29.5018    5.5447 C.3       11 UNK         0.1003 
     66 C          32.8211   30.6293    6.2321 C.2       11 UNK         0.5709 
     67 N          31.4971   30.6291    6.1533 N.am      11 UNK        -0.7358 
     68 O          33.4045   31.5318    6.8275 O.2       11 UNK        -0.4999 
     69 C69        33.8877   28.3069    6.5113 C.3       12 UNK        -0.0954 
     70 S70        32.4625   27.1759    6.7062 S.3       12 UNK        -0.2268 
     71 C71        33.1563   25.5722    6.1856 C.3       12 UNK         0.0203 
     72 H72        30.3715   20.2131   -0.2264 H         1 UNK         0.0888 
     73 H73        29.4542   19.7913   -1.6742 H         1 UNK         0.0888 
     74 H74        31.2191   19.7488   -1.7025 H         1 UNK         0.0888 
     75 H75        30.3837   22.4193    0.1201 H         1 UNK         0.3017 
     76 H76        31.1480   24.3055   -1.9449 H         1 UNK         0.0873 
     77 H77        31.1105   25.9561   -0.1030 H         1 UNK         0.0745 
     78 H78        30.4489   24.7825    1.0033 H         1 UNK         0.0745 
     79 H79        33.5744   22.7107    2.0061 H         1 UNK         0.0705 
     80 H80        31.9988   22.3118    1.3943 H         1 UNK         0.0705 
     81 H81        33.7921   24.6629    3.6949 H         1 UNK         0.1334 
     82 H82        30.5541   24.8024    6.5043 H         1 UNK         0.1417 
     83 H83        30.0685   22.7431    2.7769 H         1 UNK         0.1562 
     84 H84        28.5938   23.4349    6.1449 H         1 UNK         0.0748 
     85 H85        28.5942   22.2866    4.8352 H         1 UNK         0.0748 
     86 H86        28.1516   25.8317    5.9420 H         1 UNK         0.0940 
     87 H87        26.6139   26.2829    5.2592 H         1 UNK         0.0940 
     88 H88        29.3156   26.5702    3.8684 H         1 UNK         0.0703 
     89 H89        28.2317   26.8094    1.9929 H         1 UNK         0.3081 
     90 H90        24.9966   27.8918    0.9565 H         1 UNK         0.0719 
     91 H91        26.8599   29.4615    0.4715 H         1 UNK         0.0809 
     92 H92        27.9457   28.1192    0.1338 H         1 UNK         0.0809 
     93 H93        26.5521   28.4098   -0.8994 H         1 UNK         0.0809 
     94 H94        26.8607   25.8862   -0.0328 H         1 UNK         0.2990 
     95 H95        25.8565   23.2389    0.9793 H         1 UNK         0.0690 
     96 H96        23.3614   23.6322   -0.7555 H         1 UNK         0.0788 
     97 H97        23.4164   22.9577    0.8651 H         1 UNK         0.0788 
     98 H98        24.1544   22.0841   -0.4656 H         1 UNK         0.0788 
     99 H99        27.0778   23.3307   -0.8496 H         1 UNK         0.2993 
    100 H100       26.9724   23.6714   -3.8671 H         1 UNK         0.0949 
    101 H101       27.4187   26.6290   -3.1856 H         1 UNK         0.0767 
    102 H102       28.0973   25.8014   -4.5870 H         1 UNK         0.0767 
    103 H103       26.3608   25.9993   -4.4404 H         1 UNK         0.0767 
    104 H104       28.9862   23.3409   -2.9671 H         1 UNK         0.3013 
    105 H105       26.6488   28.8302    4.6047 H         1 UNK         0.3121 
    106 H106       28.1349   30.2956    6.6281 H         1 UNK         0.0774 
    107 H107       26.1255   31.7849    6.5866 H         1 UNK         0.0815 
    108 H108       25.5176   30.9480    5.1641 H         1 UNK         0.0815 
    109 H109       25.6574   30.0968    6.7027 H         1 UNK         0.0815 
    110 H110       28.0487   30.4523    3.1824 H         1 UNK         0.2987 
    111 H111       28.7908   33.2311    2.8256 H         1 UNK         0.0949 
    112 H112       29.3032   32.4670    0.4957 H         1 UNK         0.0806 
    113 H113       29.1025   30.7891    0.9801 H         1 UNK         0.0806 
    114 H114       27.7244   31.8910    0.9998 H         1 UNK         0.0806 
    115 H115       30.8270   34.1106    2.7488 H         1 UNK         0.3010 
    116 H116       32.9321   32.9856    4.1769 H         1 UNK         0.0829 
    117 H117       32.6087   35.4233    3.8806 H         1 UNK         0.0813 
    118 H118       34.2243   34.9727    3.3663 H         1 UNK         0.0813 
    119 H119       32.9861   35.2972    2.1611 H         1 UNK         0.0813 
    120 H120       32.2860   32.6220    0.7630 H         1 UNK         0.3038 
    121 H121       34.8676   31.6844   -0.0781 H         1 UNK         0.0769 
    122 H122       33.1572   32.5073   -1.6851 H         1 UNK         0.0811 
    123 H123       33.5910   30.8480   -2.0580 H         1 UNK         0.0811 
    124 H124       32.0709   31.1882   -1.2435 H         1 UNK         0.0811 
    125 H125       32.2425   30.1730    1.7017 H         1 UNK         0.3204 
    126 H126       33.3683   27.4363    1.3899 H         1 UNK         0.0748 
    127 H127       30.8661   27.7449    1.2292 H         1 UNK         0.0771 
    128 H128       31.3491   26.7290    2.5861 H         1 UNK         0.0771 
    129 H129       30.8468   28.3923    2.8534 H         1 UNK         0.0771 
    130 H130       32.2349   29.6659    3.9804 H         1 UNK         0.2980 
    131 H131       34.6068   29.9422    5.3228 H         1 UNK         0.0545 
    132 H132       30.9941   29.8536    5.7276 H         1 UNK         0.3459 
    133 H133       30.9815   31.3822    6.5777 H         1 UNK         0.3459 
    134 H134       34.7604   27.7522    6.1695 H         1 UNK         0.0616 
    135 H135       34.1670   28.6691    7.5024 H         1 UNK         0.0616 
    136 H136       33.2955   24.9511    7.0712 H         1 UNK         0.0634 
    137 H137       34.1481   25.7062    5.7537 H         1 UNK         0.0634 
@<TRIPOS>BOND
     1    1    2 1    
     2    1   72 1    
     3    1   73 1    
     4    1   74 1    
     5    2    3 2    
     6    2    4 am   BACKBONE|DICT|INTERRES
     7    4    5 1    
     8    4   75 1    
     9    5    6 1    
    10    5   35 1    
    11    5   76 1    
    12    6    7 1    
    13    6   77 1    
    14    6   78 1    
    15    7    8 1    
    16    8    9 1    
    17    8   79 1    
    18    8   80 1    
    19    9   10 ar   
    20    9   14 ar   
    21   10   11 ar   
    22   10   81 1    
    23   11   12 ar   
    24   11   71 1    
    25   12   13 ar   
    26   12   82 1    
    27   13   14 ar   
    28   13   15 1    
    29   14   83 1    
    30   15   16 1    
    31   15   84 1    
    32   15   85 1    
    33   16   17 1    
    34   17   18 1    
    35   17   86 1    
    36   17   87 1    
    37   18   19 1    
    38   18   37 1    
    39   18   88 1    
    40   19   20 am   BACKBONE|DICT|INTERRES
    41   19   89 1    
    42   20   21 2    
    43   20   22 1    
    44   22   23 1    
    45   22   24 1    
    46   22   90 1    
    47   23   91 1    
    48   23   92 1    
    49   23   93 1    
    50   24   25 am   BACKBONE|DICT|INTERRES
    51   24   94 1    
    52   25   26 2    
    53   25   27 1    
    54   27   28 1    
    55   27   29 1    
    56   27   95 1    
    57   28   96 1    
    58   28   97 1    
    59   28   98 1    
    60   29   30 am   BACKBONE|DICT|INTERRES
    61   29   99 1    
    62   30   31 2    
    63   30   32 1    
    64   32   33 1    
    65   32   34 1    
    66   32  100 1    
    67   33  101 1    
    68   33  102 1    
    69   33  103 1    
    70   34   35 am   BACKBONE|DICT|INTERRES
    71   34  104 1    
    72   35   36 2    
    73   37   38 2    
    74   37   39 am   BACKBONE|DICT|INTERRES
    75   39   40 1    
    76   39  105 1    
    77   40   41 1    
    78   40   42 1    
    79   40  106 1    
    80   41  107 1    
    81   41  108 1    
    82   41  109 1    
    83   42   43 2    
    84   42   44 am   BACKBONE|DICT|INTERRES
    85   44   45 1    
    86   44  110 1    
    87   45   46 1    
    88   45   47 1    
    89   45  111 1    
    90   46  112 1    
    91   46  113 1    
    92   46  114 1    
    93   47   48 2    
    94   47   49 am   BACKBONE|DICT|INTERRES
    95   49   50 1    
    96   49  115 1    
    97   50   51 1    
    98   50   52 1    
    99   50  116 1    
   100   51  117 1    
   101   51  118 1    
   102   51  119 1    
   103   52   53 2    
   104   52   54 am   BACKBONE|DICT|INTERRES
   105   54   55 1    
   106   54  120 1    
   107   55   56 1    
   108   55   57 1    
   109   55  121 1    
   110   56  122 1    
   111   56  123 1    
   112   56  124 1    
   113   57   58 2    
   114   57   59 am   BACKBONE|DICT|INTERRES
   115   59   60 1    
   116   59  125 1    
   117   60   61 1    
   118   60   62 1    
   119   60  126 1    
   120   61  127 1    
   121   61  128 1    
   122   61  129 1    
   123   62   63 2    
   124   62   64 am   BACKBONE|DICT|INTERRES
   125   64   65 1    
   126   64  130 1    
   127   65   66 1    
   128   65   69 1    
   129   65  131 1    
   130   66   67 am   BACKBONE|DICT|INTERRES
   131   66   68 2    
   132   67  132 1    
   133   67  133 1    
   134   69   70 1    
   135   69  134 1    
   136   69  135 1    
   137   70   71 1    
   138   71  136 1    
   139   71  137 1    
@<TRIPOS>SUBSTRUCTURE
     1 UNK         1 GROUP             0       ****    0 ROOT    
