@<TRIPOS>MOLECULE
3R136
137   139    1
SMALL
USER_CHARGES


@<TRIPOS>ATOM
      1 CA         33.4380   24.5240   -2.7572 C.3       0 UNK        -0.1979 
      2 C          32.5466   23.8486   -1.7257 C.2       0 UNK         0.4864 
      3 O          33.0334   23.4568   -0.6666 O.2       0 UNK        -0.5359 
      4 N          31.2523   23.7171   -2.0320 N.am      1 UNK        -0.4318 
      5 CA         30.1943   23.1798   -1.1771 C.3       1 UNK         0.0824 
      6 C6         30.3129   21.6465   -0.9286 C.3       12 UNK        -0.0944 
      7 S7         29.2252   21.0057    0.3995 S.3       12 UNK        -0.2672 
      8 C8         30.3187   20.9568    1.8518 C.3       12 UNK         0.0333 
      9 C9         30.3935   22.3027    2.5593 C.ar      12 UNK        -0.0807 
     10 C10        31.4716   23.1589    2.3248 C.ar      12 UNK        -0.0894 
     11 C11        31.5872   24.3742    3.0042 C.ar      12 UNK        -0.0804 
     12 C12        30.6070   24.7114    3.9459 C.ar      12 UNK        -0.0824 
     13 C13        29.5206   23.8700    4.1989 C.ar      12 UNK        -0.0762 
     14 C14        29.4140   22.6689    3.4890 C.ar      12 UNK        -0.0782 
     15 C15        28.5133   24.2112    5.2960 C.3       12 UNK         0.0230 
     16 S16        27.5396   25.7208    4.9679 S.3       12 UNK        -0.2608 
     17 C17        28.6416   27.0599    5.5787 C.3       12 UNK        -0.0989 
     18 CA         29.0656   28.1232    4.5143 C.3       5 UNK         0.0716 
     19 N          29.0157   27.6006    3.1484 N.am      5 UNK        -0.4135 
     20 C          29.2638   28.2438    2.0006 C.2       4 UNK         0.5031 
     21 O          29.6676   29.4049    1.9216 O.2       4 UNK        -0.5229 
     22 CA         29.0003   27.4551    0.7053 C.3       4 UNK         0.0329 
     23 CB         30.3178   26.8852    0.1550 C.3       4 UNK        -0.2001 
     24 N          28.0269   26.3665    0.8653 N.am      4 UNK        -0.4303 
     25 C          26.7196   26.5338    1.1198 C.2       3 UNK         0.5044 
     26 O          26.1737   27.6342    1.1971 O.2       3 UNK        -0.5152 
     27 CA         25.9009   25.2446    1.3302 C.3       3 UNK         0.0319 
     28 CB         24.3904   25.5040    1.5168 C.3       3 UNK        -0.2001 
     29 N          26.1438   24.2501    0.2785 N.am      3 UNK        -0.4354 
     30 C          25.8932   24.3736   -1.0358 C.2       2 UNK         0.4964 
     31 O          25.3443   25.3475   -1.5538 O.2       2 UNK        -0.5047 
     32 CA         26.3804   23.1999   -1.9076 C.3       2 UNK         0.0288 
     33 CB         26.1534   23.4162   -3.4201 C.3       2 UNK        -0.2113 
     34 N          27.7824   22.8747   -1.6131 N.am      2 UNK        -0.4145 
     35 C          28.8551   23.6626   -1.7769 C.2       1 UNK         0.5006 
     36 O          28.8205   24.7513   -2.3558 O.2       1 UNK        -0.5103 
     37 C          28.2534   29.4277    4.6493 C.2       5 UNK         0.5055 
     38 O          27.0257   29.3989    4.5511 O.2       5 UNK        -0.5220 
     39 N          28.9689   30.5445    4.8332 N.am      6 UNK        -0.4450 
     40 CA         28.5215   31.9377    4.9560 C.3       6 UNK         0.0367 
     41 CB         27.4968   32.1171    6.0933 C.3       6 UNK        -0.1929 
     42 C          28.0199   32.5642    3.6425 C.2       6 UNK         0.5070 
     43 O          28.1561   33.7765    3.4751 O.2       6 UNK        -0.5237 
     44 N          27.4641   31.7549    2.7330 N.am      7 UNK        -0.4739 
     45 CA         26.9777   32.1809    1.4205 C.3       7 UNK         0.0276 
     46 CB         26.0940   31.0758    0.8236 C.3       7 UNK        -0.1927 
     47 C          28.1100   32.5402    0.4448 C.2       7 UNK         0.5013 
     48 O          27.9456   33.4758   -0.3396 O.2       7 UNK        -0.5193 
     49 N          29.2193   31.7915    0.4993 N.am      8 UNK        -0.4253 
     50 CA         30.3744   31.9461   -0.3853 C.3       8 UNK         0.0242 
     51 CB         30.4191   30.7693   -1.3746 C.3       8 UNK        -0.2000 
     52 C          31.6967   32.0502    0.3870 C.2       8 UNK         0.4948 
     53 O          32.5794   32.7853   -0.0589 O.2       8 UNK        -0.5275 
     54 N          31.8342   31.3310    1.5088 N.am      9 UNK        -0.4246 
     55 CA         33.0525   31.2927    2.3176 C.3       9 UNK         0.0261 
     56 CB         34.0064   30.2238    1.7515 C.3       9 UNK        -0.1959 
     57 C          32.7072   31.0013    3.7811 C.2       9 UNK         0.5033 
     58 O          31.6073   30.5300    4.0729 O.2       9 UNK        -0.5390 
     59 N          33.6591   31.2709    4.6837 N.am      10 UNK        -0.4215 
     60 CA         33.5362   30.9701    6.1142 C.3       10 UNK         0.0240 
     61 CB         34.6602   31.6763    6.8901 C.3       10 UNK        -0.1982 
     62 C          33.5381   29.4589    6.4091 C.2       10 UNK         0.4970 
     63 O          32.8089   29.0225    7.3008 O.2       10 UNK        -0.4916 
     64 N          34.3391   28.7032    5.6427 N.am      11 UNK        -0.4279 
     65 CA         34.4889   27.2397    5.7137 C.3       11 UNK         0.1003 
     66 C          35.0343   26.7447    7.0908 C.2       11 UNK         0.5709 
     67 N          34.8097   25.4916    7.4654 N.am      11 UNK        -0.7358 
     68 O          35.7209   27.4740    7.8052 O.2       11 UNK        -0.4999 
     69 C69        33.2119   26.4977    5.2187 C.3       12 UNK        -0.0954 
     70 S70        32.7960   26.9146    3.4881 S.3       12 UNK        -0.2268 
     71 C71        32.7973   25.2646    2.6999 C.3       12 UNK         0.0203 
     72 H72        34.2373   23.8488   -3.0613 H         1 UNK         0.0888 
     73 H73        32.8828   24.8157   -3.6486 H         1 UNK         0.0888 
     74 H74        33.8908   25.4191   -2.3316 H         1 UNK         0.0888 
     75 H75        30.8988   24.1191   -2.8918 H         1 UNK         0.3017 
     76 H76        30.2838   23.6841   -0.2137 H         1 UNK         0.0873 
     77 H77        30.1002   21.0978   -1.8479 H         1 UNK         0.0745 
     78 H78        31.3404   21.3865   -0.6726 H         1 UNK         0.0745 
     79 H79        31.3128   20.6129    1.5618 H         1 UNK         0.0705 
     80 H80        29.9361   20.2076    2.5466 H         1 UNK         0.0705 
     81 H81        32.2350   22.8690    1.6172 H         1 UNK         0.1334 
     82 H82        30.6937   25.6263    4.5032 H         1 UNK         0.1417 
     83 H83        28.5887   21.9973    3.6843 H         1 UNK         0.1562 
     84 H84        29.0325   24.3051    6.2507 H         1 UNK         0.0748 
     85 H85        27.8100   23.3870    5.4241 H         1 UNK         0.0748 
     86 H86        29.5324   26.6189    6.0247 H         1 UNK         0.0940 
     87 H87        28.1414   27.5279    6.4295 H         1 UNK         0.0940 
     88 H88        30.1136   28.3668    4.7020 H         1 UNK         0.0703 
     89 H89        28.6521   26.6616    3.0834 H         1 UNK         0.3081 
     90 H90        28.6003   28.1621   -0.0246 H         1 UNK         0.0719 
     91 H91        30.6888   26.0660    0.7697 H         1 UNK         0.0809 
     92 H92        30.1949   26.5151   -0.8621 H         1 UNK         0.0809 
     93 H93        31.0991   27.6462    0.1264 H         1 UNK         0.0809 
     94 H94        28.3844   25.4259    0.8018 H         1 UNK         0.2990 
     95 H95        26.2683   24.8022    2.2574 H         1 UNK         0.0690 
     96 H96        23.8464   24.5755    1.6899 H         1 UNK         0.0788 
     97 H97        23.9504   25.9951    0.6485 H         1 UNK         0.0788 
     98 H98        24.2118   26.1491    2.3781 H         1 UNK         0.0788 
     99 H99        26.5923   23.3989    0.5876 H         1 UNK         0.2993 
    100 H100       25.7895   22.3317   -1.6108 H         1 UNK         0.0949 
    101 H101       26.6602   24.3087   -3.7882 H         1 UNK         0.0767 
    102 H102       26.5102   22.5648   -3.9997 H         1 UNK         0.0767 
    103 H103       25.0917   23.5357   -3.6391 H         1 UNK         0.0767 
    104 H104       27.9373   22.0012   -1.1214 H         1 UNK         0.3013 
    105 H105       29.9821   30.4533    4.7233 H         1 UNK         0.3121 
    106 H106       29.4166   32.4966    5.2338 H         1 UNK         0.0774 
    107 H107       27.2809   33.1739    6.2552 H         1 UNK         0.0815 
    108 H108       26.5486   31.6268    5.8714 H         1 UNK         0.0815 
    109 H109       27.8726   31.7151    7.0340 H         1 UNK         0.0815 
    110 H110       27.3569   30.7769    2.9764 H         1 UNK         0.2987 
    111 H111       26.3628   33.0729    1.5602 H         1 UNK         0.0949 
    112 H112       25.6599   31.3929   -0.1255 H         1 UNK         0.0806 
    113 H113       26.6658   30.1673    0.6318 H         1 UNK         0.0806 
    114 H114       25.2695   30.8183    1.4886 H         1 UNK         0.0806 
    115 H115       29.2608   31.0243    1.1675 H         1 UNK         0.3010 
    116 H116       30.2813   32.8676   -0.9642 H         1 UNK         0.0829 
    117 H117       29.5161   30.7299   -1.9840 H         1 UNK         0.0813 
    118 H118       31.2667   30.8620   -2.0550 H         1 UNK         0.0813 
    119 H119       30.5168   29.8143   -0.8588 H         1 UNK         0.0813 
    120 H120       31.0794   30.7354    1.8443 H         1 UNK         0.3038 
    121 H121       33.5408   32.2691    2.2857 H         1 UNK         0.0769 
    122 H122       33.5356   29.2405    1.7310 H         1 UNK         0.0811 
    123 H123       34.9156   30.1403    2.3475 H         1 UNK         0.0811 
    124 H124       34.3118   30.4656    0.7334 H         1 UNK         0.0811 
    125 H125       34.5316   31.6740    4.3725 H         1 UNK         0.3204 
    126 H126       32.5812   31.3711    6.4616 H         1 UNK         0.0748 
    127 H127       34.5749   31.4825    7.9604 H         1 UNK         0.0771 
    128 H128       35.6475   31.3354    6.5758 H         1 UNK         0.0771 
    129 H129       34.6179   32.7573    6.7542 H         1 UNK         0.0771 
    130 H130       34.9115   29.1637    4.9527 H         1 UNK         0.2980 
    131 H131       35.2902   27.0022    5.0133 H         1 UNK         0.0545 
    132 H132       34.2726   24.8624    6.8907 H         1 UNK         0.3459 
    133 H133       35.1844   25.1712    8.3446 H         1 UNK         0.3459 
    134 H134       32.3572   26.7412    5.8512 H         1 UNK         0.0616 
    135 H135       33.3389   25.4169    5.2845 H         1 UNK         0.0616 
    136 H136       33.7100   24.7379    2.9818 H         1 UNK         0.0634 
    137 H137       32.8559   25.4137    1.6209 H         1 UNK         0.0634 
@<TRIPOS>BOND
     1    1    2 1    
     2    1   72 1    
     3    1   73 1    
     4    1   74 1    
     5    2    3 2    
     6    2    4 am   BACKBONE|DICT|INTERRES
     7    4    5 1    
     8    4   75 1    
     9    5    6 1    
    10    5   35 1    
    11    5   76 1    
    12    6    7 1    
    13    6   77 1    
    14    6   78 1    
    15    7    8 1    
    16    8    9 1    
    17    8   79 1    
    18    8   80 1    
    19    9   10 ar   
    20    9   14 ar   
    21   10   11 ar   
    22   10   81 1    
    23   11   12 ar   
    24   11   71 1    
    25   12   13 ar   
    26   12   82 1    
    27   13   14 ar   
    28   13   15 1    
    29   14   83 1    
    30   15   16 1    
    31   15   84 1    
    32   15   85 1    
    33   16   17 1    
    34   17   18 1    
    35   17   86 1    
    36   17   87 1    
    37   18   19 1    
    38   18   37 1    
    39   18   88 1    
    40   19   20 am   BACKBONE|DICT|INTERRES
    41   19   89 1    
    42   20   21 2    
    43   20   22 1    
    44   22   23 1    
    45   22   24 1    
    46   22   90 1    
    47   23   91 1    
    48   23   92 1    
    49   23   93 1    
    50   24   25 am   BACKBONE|DICT|INTERRES
    51   24   94 1    
    52   25   26 2    
    53   25   27 1    
    54   27   28 1    
    55   27   29 1    
    56   27   95 1    
    57   28   96 1    
    58   28   97 1    
    59   28   98 1    
    60   29   30 am   BACKBONE|DICT|INTERRES
    61   29   99 1    
    62   30   31 2    
    63   30   32 1    
    64   32   33 1    
    65   32   34 1    
    66   32  100 1    
    67   33  101 1    
    68   33  102 1    
    69   33  103 1    
    70   34   35 am   BACKBONE|DICT|INTERRES
    71   34  104 1    
    72   35   36 2    
    73   37   38 2    
    74   37   39 am   BACKBONE|DICT|INTERRES
    75   39   40 1    
    76   39  105 1    
    77   40   41 1    
    78   40   42 1    
    79   40  106 1    
    80   41  107 1    
    81   41  108 1    
    82   41  109 1    
    83   42   43 2    
    84   42   44 am   BACKBONE|DICT|INTERRES
    85   44   45 1    
    86   44  110 1    
    87   45   46 1    
    88   45   47 1    
    89   45  111 1    
    90   46  112 1    
    91   46  113 1    
    92   46  114 1    
    93   47   48 2    
    94   47   49 am   BACKBONE|DICT|INTERRES
    95   49   50 1    
    96   49  115 1    
    97   50   51 1    
    98   50   52 1    
    99   50  116 1    
   100   51  117 1    
   101   51  118 1    
   102   51  119 1    
   103   52   53 2    
   104   52   54 am   BACKBONE|DICT|INTERRES
   105   54   55 1    
   106   54  120 1    
   107   55   56 1    
   108   55   57 1    
   109   55  121 1    
   110   56  122 1    
   111   56  123 1    
   112   56  124 1    
   113   57   58 2    
   114   57   59 am   BACKBONE|DICT|INTERRES
   115   59   60 1    
   116   59  125 1    
   117   60   61 1    
   118   60   62 1    
   119   60  126 1    
   120   61  127 1    
   121   61  128 1    
   122   61  129 1    
   123   62   63 2    
   124   62   64 am   BACKBONE|DICT|INTERRES
   125   64   65 1    
   126   64  130 1    
   127   65   66 1    
   128   65   69 1    
   129   65  131 1    
   130   66   67 am   BACKBONE|DICT|INTERRES
   131   66   68 2    
   132   67  132 1    
   133   67  133 1    
   134   69   70 1    
   135   69  134 1    
   136   69  135 1    
   137   70   71 1    
   138   71  136 1    
   139   71  137 1    
@<TRIPOS>SUBSTRUCTURE
     1 UNK         1 GROUP             0       ****    0 ROOT    
