@<TRIPOS>MOLECULE
3R136
137   139    1
SMALL
USER_CHARGES


@<TRIPOS>ATOM
      1 CA         29.2892   19.6779   -0.5678 C.3       0 UNK        -0.1979 
      2 C          29.6488   20.9697   -1.2873 C.2       0 UNK         0.4864 
      3 O          29.9080   20.9475   -2.4917 O.2       0 UNK        -0.5359 
      4 N          29.6725   22.0912   -0.5568 N.am      1 UNK        -0.4318 
      5 CA         29.9328   23.4305   -1.0919 C.3       1 UNK         0.0824 
      6 C6         30.3951   24.4066    0.0181 C.3       12 UNK        -0.0944 
      7 S7         32.1568   24.1582    0.4201 S.3       12 UNK        -0.2672 
      8 C8         32.0960   23.0253    1.8439 C.3       12 UNK         0.0333 
      9 C9         31.5761   23.6921    3.1097 C.ar      12 UNK        -0.0807 
     10 C10        32.2973   24.7329    3.7031 C.ar      12 UNK        -0.0894 
     11 C11        31.8574   25.3178    4.8945 C.ar      12 UNK        -0.0804 
     12 C12        30.6931   24.8385    5.5010 C.ar      12 UNK        -0.0824 
     13 C13        29.9481   23.8140    4.9058 C.ar      12 UNK        -0.0762 
     14 C14        30.3961   23.2435    3.7110 C.ar      12 UNK        -0.0782 
     15 C15        28.6584   23.3219    5.5518 C.3       12 UNK         0.0230 
     16 S16        27.1783   24.0695    4.7881 S.3       12 UNK        -0.2608 
     17 C17        27.4701   25.8408    5.1042 C.3       12 UNK        -0.0989 
     18 CA         27.9540   26.5593    3.8110 C.3       5 UNK         0.0716 
     19 N          26.8214   26.8838    2.9412 N.am      5 UNK        -0.4135 
     20 C          26.8601   27.0039    1.6088 C.2       4 UNK         0.5031 
     21 O          27.8254   26.6923    0.9083 O.2       4 UNK        -0.5229 
     22 CA         25.6012   27.6052    0.9671 C.3       4 UNK         0.0329 
     23 CB         25.2889   29.0032    1.5490 C.3       4 UNK        -0.2001 
     24 N          25.7761   27.6917   -0.4811 N.am      4 UNK        -0.4303 
     25 C          24.7964   27.8685   -1.3734 C.2       3 UNK         0.5044 
     26 O          23.6057   27.9545   -1.0687 O.2       3 UNK        -0.5152 
     27 CA         25.1867   27.9653   -2.8589 C.3       3 UNK         0.0319 
     28 CB         25.7914   29.3443   -3.1933 C.3       3 UNK        -0.2001 
     29 N          26.0278   26.8611   -3.3407 N.am      3 UNK        -0.4354 
     30 C          27.3021   26.5843   -3.0346 C.2       2 UNK         0.4964 
     31 O          28.0012   27.2654   -2.2818 O.2       2 UNK        -0.5047 
     32 CA         27.9027   25.3534   -3.7308 C.3       2 UNK         0.0288 
     33 CB         28.5155   25.7492   -5.0847 C.3       2 UNK        -0.2113 
     34 N          28.9341   24.7219   -2.9091 N.am      2 UNK        -0.4145 
     35 C          28.6905   23.9637   -1.8322 C.2       1 UNK         0.5006 
     36 O          27.5579   23.6819   -1.4287 O.2       1 UNK        -0.5103 
     37 C          28.7953   27.8366    4.0474 C.2       5 UNK         0.5055 
     38 O          29.1854   28.4910    3.0781 O.2       5 UNK        -0.5220 
     39 N          29.0700   28.1991    5.3103 N.am      6 UNK        -0.4450 
     40 CA         29.9451   29.3129    5.7035 C.3       6 UNK         0.0367 
     41 CB         30.0732   29.3487    7.2339 C.3       6 UNK        -0.1929 
     42 C          29.5258   30.6933    5.1633 C.2       6 UNK         0.5070 
     43 O          30.3855   31.5556    4.9986 O.2       6 UNK        -0.5237 
     44 N          28.2367   30.8678    4.8424 N.am      7 UNK        -0.4739 
     45 CA         27.6983   32.0586    4.1780 C.3       7 UNK         0.0276 
     46 CB         26.1628   31.9847    4.1790 C.3       7 UNK        -0.1927 
     47 C          28.2290   32.2779    2.7453 C.2       7 UNK         0.5013 
     48 O          28.1949   33.4155    2.2743 O.2       7 UNK        -0.5193 
     49 N          28.7032   31.2106    2.0854 N.am      8 UNK        -0.4253 
     50 CA         29.3011   31.2541    0.7487 C.3       8 UNK         0.0242 
     51 CB         28.4991   30.3515   -0.2056 C.3       8 UNK        -0.2000 
     52 C          30.7754   30.8256    0.7768 C.2       8 UNK         0.4948 
     53 O          31.6051   31.4815    0.1463 O.2       8 UNK        -0.5275 
     54 N          31.0783   29.7316    1.4876 N.am      9 UNK        -0.4246 
     55 CA         32.3885   29.0773    1.4939 C.3       9 UNK         0.0261 
     56 CB         32.1716   27.5737    1.7095 C.3       9 UNK        -0.1959 
     57 C          33.3750   29.6351    2.5338 C.2       9 UNK         0.5033 
     58 O          34.5508   29.2687    2.4850 O.2       9 UNK        -0.5390 
     59 N          32.9019   30.4863    3.4560 N.am      10 UNK        -0.4215 
     60 CA         33.6341   31.1646    4.5360 C.3       10 UNK         0.0240 
     61 CB         34.7410   32.0855    3.9832 C.3       10 UNK        -0.1982 
     62 C          34.1773   30.2391    5.6400 C.2       10 UNK         0.4970 
     63 O          33.8929   30.4866    6.8119 O.2       10 UNK        -0.4916 
     64 N          34.9673   29.2255    5.2601 N.am      11 UNK        -0.4279 
     65 CA         35.7467   28.3428    6.1512 C.3       11 UNK         0.1003 
     66 C          36.8454   29.0805    6.9840 C.2       11 UNK         0.5709 
     67 N          37.2847   30.2707    6.5901 N.am      11 UNK        -0.7358 
     68 O          37.3429   28.5575    7.9788 O.2       11 UNK        -0.4999 
     69 C69        34.8472   27.3961    7.0056 C.3       12 UNK        -0.0954 
     70 S70        34.2798   25.9414    6.0673 S.3       12 UNK        -0.2268 
     71 C71        32.6317   26.4705    5.5207 C.3       12 UNK         0.0203 
     72 H72        30.1014   18.9576   -0.6618 H         1 UNK         0.0888 
     73 H73        29.1018   19.8401    0.4936 H         1 UNK         0.0888 
     74 H74        28.3929   19.2411   -1.0074 H         1 UNK         0.0888 
     75 H75        29.3984   22.0561    0.4132 H         1 UNK         0.3017 
     76 H76        30.7338   23.3458   -1.8306 H         1 UNK         0.0873 
     77 H77        29.7766   24.3228    0.9137 H         1 UNK         0.0745 
     78 H78        30.2950   25.4433   -0.3107 H         1 UNK         0.0745 
     79 H79        33.1053   22.6584    2.0348 H         1 UNK         0.0705 
     80 H80        31.5018   22.1481    1.5863 H         1 UNK         0.0705 
     81 H81        33.2086   25.0845    3.2391 H         1 UNK         0.1334 
     82 H82        30.3603   25.2737    6.4329 H         1 UNK         0.1417 
     83 H83        29.8271   22.4434    3.2575 H         1 UNK         0.1562 
     84 H84        28.6599   23.5335    6.6223 H         1 UNK         0.0748 
     85 H85        28.5928   22.2368    5.4594 H         1 UNK         0.0748 
     86 H86        28.1792   25.9079    5.9271 H         1 UNK         0.0940 
     87 H87        26.5488   26.2882    5.4819 H         1 UNK         0.0940 
     88 H88        28.6239   25.8847    3.2725 H         1 UNK         0.0703 
     89 H89        25.9719   27.1519    3.4144 H         1 UNK         0.3081 
     90 H90        24.7688   26.9296    1.1748 H         1 UNK         0.0719 
     91 H91        26.1366   29.6801    1.4437 H         1 UNK         0.0809 
     92 H92        24.4333   29.4662    1.0578 H         1 UNK         0.0809 
     93 H93        25.0441   28.9490    2.6096 H         1 UNK         0.0809 
     94 H94        26.7313   27.5616   -0.8122 H         1 UNK         0.2990 
     95 H95        24.2579   27.8824   -3.4259 H         1 UNK         0.0690 
     96 H96        25.9989   29.4380   -4.2592 H         1 UNK         0.0788 
     97 H97        26.7202   29.5297   -2.6537 H         1 UNK         0.0788 
     98 H98        25.1004   30.1448   -2.9258 H         1 UNK         0.0788 
     99 H99        25.5543   26.2221   -3.9651 H         1 UNK         0.2993 
    100 H100       27.1086   24.6236   -3.9056 H         1 UNK         0.0949 
    101 H101       28.9224   24.8819   -5.6054 H         1 UNK         0.0767 
    102 H102       27.7654   26.1954   -5.7393 H         1 UNK         0.0767 
    103 H103       29.3186   26.4782   -4.9665 H         1 UNK         0.0767 
    104 H104       29.8905   24.9426   -3.1452 H         1 UNK         0.3013 
    105 H105       28.6870   27.6497    6.0651 H         1 UNK         0.3121 
    106 H106       30.9332   29.1022    5.2899 H         1 UNK         0.0774 
    107 H107       29.1133   29.5390    7.7154 H         1 UNK         0.0815 
    108 H108       30.4677   28.4110    7.6250 H         1 UNK         0.0815 
    109 H109       30.7581   30.1384    7.5475 H         1 UNK         0.0815 
    110 H110       27.5943   30.1089    5.0150 H         1 UNK         0.2987 
    111 H111       27.9982   32.9295    4.7652 H         1 UNK         0.0949 
    112 H112       25.7991   31.1188    3.6263 H         1 UNK         0.0806 
    113 H113       25.7681   31.9274    5.1935 H         1 UNK         0.0806 
    114 H114       25.7291   32.8718    3.7151 H         1 UNK         0.0806 
    115 H115       28.7167   30.3125    2.5595 H         1 UNK         0.3010 
    116 H116       29.2712   32.2699    0.3487 H         1 UNK         0.0829 
    117 H117       27.4735   30.7031   -0.3151 H         1 UNK         0.0813 
    118 H118       28.9433   30.3408   -1.2019 H         1 UNK         0.0813 
    119 H119       28.4656   29.3186    0.1435 H         1 UNK         0.0813 
    120 H120       30.3350   29.2410    1.9852 H         1 UNK         0.3038 
    121 H121       32.8536   29.2083    0.5144 H         1 UNK         0.0769 
    122 H122       33.1177   27.0311    1.7015 H         1 UNK         0.0811 
    123 H123       31.5505   27.1515    0.9202 H         1 UNK         0.0811 
    124 H124       31.6785   27.3692    2.6589 H         1 UNK         0.0811 
    125 H125       31.9156   30.7094    3.4178 H         1 UNK         0.3204 
    126 H126       32.9077   31.8176    5.0196 H         1 UNK         0.0748 
    127 H127       35.2100   32.6549    4.7868 H         1 UNK         0.0771 
    128 H128       35.5303   31.5287    3.4776 H         1 UNK         0.0771 
    129 H129       34.3348   32.8058    3.2729 H         1 UNK         0.0771 
    130 H130       35.1097   29.1008    4.2603 H         1 UNK         0.2980 
    131 H131       36.3341   27.7148    5.4806 H         1 UNK         0.0545 
    132 H132       38.0034   30.7313    7.1257 H         1 UNK         0.3459 
    133 H133       36.9129   30.7065    5.7624 H         1 UNK         0.3459 
    134 H134       33.9970   27.9246    7.4374 H         1 UNK         0.0616 
    135 H135       35.3934   26.9876    7.8568 H         1 UNK         0.0616 
    136 H136       32.7378   27.2797    4.7979 H         1 UNK         0.0634 
    137 H137       32.0865   26.8812    6.3715 H         1 UNK         0.0634 
@<TRIPOS>BOND
     1    1    2 1    
     2    1   72 1    
     3    1   73 1    
     4    1   74 1    
     5    2    3 2    
     6    2    4 am   BACKBONE|DICT|INTERRES
     7    4    5 1    
     8    4   75 1    
     9    5    6 1    
    10    5   35 1    
    11    5   76 1    
    12    6    7 1    
    13    6   77 1    
    14    6   78 1    
    15    7    8 1    
    16    8    9 1    
    17    8   79 1    
    18    8   80 1    
    19    9   10 ar   
    20    9   14 ar   
    21   10   11 ar   
    22   10   81 1    
    23   11   12 ar   
    24   11   71 1    
    25   12   13 ar   
    26   12   82 1    
    27   13   14 ar   
    28   13   15 1    
    29   14   83 1    
    30   15   16 1    
    31   15   84 1    
    32   15   85 1    
    33   16   17 1    
    34   17   18 1    
    35   17   86 1    
    36   17   87 1    
    37   18   19 1    
    38   18   37 1    
    39   18   88 1    
    40   19   20 am   BACKBONE|DICT|INTERRES
    41   19   89 1    
    42   20   21 2    
    43   20   22 1    
    44   22   23 1    
    45   22   24 1    
    46   22   90 1    
    47   23   91 1    
    48   23   92 1    
    49   23   93 1    
    50   24   25 am   BACKBONE|DICT|INTERRES
    51   24   94 1    
    52   25   26 2    
    53   25   27 1    
    54   27   28 1    
    55   27   29 1    
    56   27   95 1    
    57   28   96 1    
    58   28   97 1    
    59   28   98 1    
    60   29   30 am   BACKBONE|DICT|INTERRES
    61   29   99 1    
    62   30   31 2    
    63   30   32 1    
    64   32   33 1    
    65   32   34 1    
    66   32  100 1    
    67   33  101 1    
    68   33  102 1    
    69   33  103 1    
    70   34   35 am   BACKBONE|DICT|INTERRES
    71   34  104 1    
    72   35   36 2    
    73   37   38 2    
    74   37   39 am   BACKBONE|DICT|INTERRES
    75   39   40 1    
    76   39  105 1    
    77   40   41 1    
    78   40   42 1    
    79   40  106 1    
    80   41  107 1    
    81   41  108 1    
    82   41  109 1    
    83   42   43 2    
    84   42   44 am   BACKBONE|DICT|INTERRES
    85   44   45 1    
    86   44  110 1    
    87   45   46 1    
    88   45   47 1    
    89   45  111 1    
    90   46  112 1    
    91   46  113 1    
    92   46  114 1    
    93   47   48 2    
    94   47   49 am   BACKBONE|DICT|INTERRES
    95   49   50 1    
    96   49  115 1    
    97   50   51 1    
    98   50   52 1    
    99   50  116 1    
   100   51  117 1    
   101   51  118 1    
   102   51  119 1    
   103   52   53 2    
   104   52   54 am   BACKBONE|DICT|INTERRES
   105   54   55 1    
   106   54  120 1    
   107   55   56 1    
   108   55   57 1    
   109   55  121 1    
   110   56  122 1    
   111   56  123 1    
   112   56  124 1    
   113   57   58 2    
   114   57   59 am   BACKBONE|DICT|INTERRES
   115   59   60 1    
   116   59  125 1    
   117   60   61 1    
   118   60   62 1    
   119   60  126 1    
   120   61  127 1    
   121   61  128 1    
   122   61  129 1    
   123   62   63 2    
   124   62   64 am   BACKBONE|DICT|INTERRES
   125   64   65 1    
   126   64  130 1    
   127   65   66 1    
   128   65   69 1    
   129   65  131 1    
   130   66   67 am   BACKBONE|DICT|INTERRES
   131   66   68 2    
   132   67  132 1    
   133   67  133 1    
   134   69   70 1    
   135   69  134 1    
   136   69  135 1    
   137   70   71 1    
   138   71  136 1    
   139   71  137 1    
@<TRIPOS>SUBSTRUCTURE
     1 UNK         1 GROUP             0       ****    0 ROOT    
