@<TRIPOS>MOLECULE
3R136
137   139    1
SMALL
USER_CHARGES


@<TRIPOS>ATOM
      1 CA         29.3303   22.1835   -4.0207 C.3       0 UNK        -0.1979 
      2 C          29.0869   22.6577   -2.5967 C.2       0 UNK         0.4864 
      3 O          28.5349   23.7420   -2.4028 O.2       0 UNK        -0.5359 
      4 N          29.4791   21.8482   -1.6012 N.am      1 UNK        -0.4318 
      5 CA         29.3870   22.1314   -0.1603 C.3       1 UNK         0.0824 
      6 C6         29.9231   20.9575    0.6928 C.3       12 UNK        -0.0944 
      7 S7         31.7371   20.8247    0.5468 S.3       12 UNK        -0.2672 
      8 C8         32.2964   21.2452    2.2318 C.3       12 UNK         0.0333 
      9 C9         31.8801   22.6463    2.6652 C.ar      12 UNK        -0.0807 
     10 C10        32.5525   23.7702    2.1757 C.ar      12 UNK        -0.0894 
     11 C11        32.1833   25.0544    2.5903 C.ar      12 UNK        -0.0804 
     12 C12        31.1292   25.2107    3.4955 C.ar      12 UNK        -0.0824 
     13 C13        30.4524   24.0952    3.9968 C.ar      12 UNK        -0.0762 
     14 C14        30.8371   22.8172    3.5809 C.ar      12 UNK        -0.0782 
     15 C15        29.3206   24.2514    5.0036 C.3       12 UNK         0.0230 
     16 S16        27.7034   23.9088    4.2389 S.3       12 UNK        -0.2608 
     17 C17        26.9015   25.5434    4.1130 C.3       12 UNK        -0.0989 
     18 CA         27.7169   26.6651    3.4179 C.3       5 UNK         0.0716 
     19 N          28.0924   26.3429    2.0319 N.am      5 UNK        -0.4135 
     20 C          28.8984   27.1062    1.2760 C.2       4 UNK         0.5031 
     21 O          29.4725   28.1065    1.7043 O.2       4 UNK        -0.5229 
     22 CA         29.0549   26.7620   -0.2161 C.3       4 UNK         0.0329 
     23 CB         30.3526   25.9801   -0.4596 C.3       4 UNK        -0.2001 
     24 N          27.9197   26.0511   -0.8136 N.am      4 UNK        -0.4303 
     25 C          26.6649   26.5222   -0.8828 C.2       3 UNK         0.5044 
     26 O          26.3011   27.5734   -0.3560 O.2       3 UNK        -0.5152 
     27 CA         25.6429   25.6774   -1.6575 C.3       3 UNK         0.0319 
     28 CB         25.8143   25.8691   -3.1733 C.3       3 UNK        -0.2001 
     29 N          25.7798   24.2613   -1.3224 N.am      3 UNK        -0.4354 
     30 C          25.1141   23.6556   -0.3287 C.2       2 UNK         0.4964 
     31 O          24.2149   24.1909    0.3207 O.2       2 UNK        -0.5047 
     32 CA         25.5271   22.2121    0.0218 C.3       2 UNK         0.0288 
     33 CB         24.6415   21.2024   -0.7263 C.3       2 UNK        -0.2113 
     34 N          26.9373   21.9043   -0.2410 N.am      2 UNK        -0.4145 
     35 C          27.9789   22.5542    0.3007 C.2       1 UNK         0.5006 
     36 O          27.8631   23.4990    1.0793 O.2       1 UNK        -0.5103 
     37 C          26.9728   28.0146    3.5706 C.2       5 UNK         0.5055 
     38 O          26.9476   28.5481    4.6809 O.2       5 UNK        -0.5220 
     39 N          26.3854   28.5519    2.4891 N.am      6 UNK        -0.4450 
     40 CA         25.7433   29.8689    2.4795 C.3       6 UNK         0.0367 
     41 CB         24.7601   29.9476    1.3000 C.3       6 UNK        -0.1929 
     42 C          26.7435   31.0409    2.4236 C.2       6 UNK         0.5070 
     43 O          26.3343   32.1752    2.6762 O.2       6 UNK        -0.5237 
     44 N          28.0144   30.7805    2.0792 N.am      7 UNK        -0.4739 
     45 CA         29.0680   31.7961    2.0194 C.3       7 UNK         0.0276 
     46 CB         30.2461   31.2626    1.1884 C.3       7 UNK        -0.1927 
     47 C          29.5386   32.1953    3.4279 C.2       7 UNK         0.5013 
     48 O          29.6474   31.3360    4.3053 O.2       7 UNK        -0.5193 
     49 N          29.8362   33.4882    3.6084 N.am      8 UNK        -0.4253 
     50 CA         30.3209   34.0575    4.8709 C.3       8 UNK         0.0242 
     51 CB         30.0072   35.5634    4.8902 C.3       8 UNK        -0.2000 
     52 C          31.8229   33.8213    5.1196 C.2       8 UNK         0.4948 
     53 O          32.2723   33.9803    6.2555 O.2       8 UNK        -0.5275 
     54 N          32.5733   33.4772    4.0672 N.am      9 UNK        -0.4246 
     55 CA         34.0111   33.2295    4.0711 C.3       9 UNK         0.0261 
     56 CB         34.7618   34.5769    4.0583 C.3       9 UNK        -0.1959 
     57 C          34.3460   32.3982    2.8196 C.2       9 UNK         0.5033 
     58 O          33.5830   32.4586    1.8540 O.2       9 UNK        -0.5390 
     59 N          35.4604   31.6528    2.7805 N.am      10 UNK        -0.4215 
     60 CA         36.4235   31.4125    3.8632 C.3       10 UNK         0.0240 
     61 CB         37.7667   30.9912    3.2444 C.3       10 UNK        -0.1982 
     62 C          35.9525   30.3533    4.8768 C.2       10 UNK         0.4970 
     63 O          36.4963   30.3040    5.9804 O.2       10 UNK        -0.4916 
     64 N          34.9688   29.5312    4.4911 N.am      11 UNK        -0.4279 
     65 CA         34.3520   28.4958    5.3324 C.3       11 UNK         0.1003 
     66 C          33.5841   29.0830    6.5492 C.2       11 UNK         0.5709 
     67 N          33.4978   28.3392    7.6438 N.am      11 UNK        -0.7358 
     68 O          33.0389   30.1837    6.4979 O.2       11 UNK        -0.4999 
     69 C69        33.4297   27.5668    4.5024 C.3       12 UNK        -0.0954 
     70 S70        34.3078   26.7492    3.1278 S.3       12 UNK        -0.2268 
     71 C71        32.9190   26.2736    2.0541 C.3       12 UNK         0.0203 
     72 H72        29.8148   21.2078   -4.0493 H         1 UNK         0.0888 
     73 H73        28.3848   22.1103   -4.5573 H         1 UNK         0.0888 
     74 H74        29.9665   22.8947   -4.5466 H         1 UNK         0.0888 
     75 H75        29.9363   20.9778   -1.8340 H         1 UNK         0.3017 
     76 H76        30.0305   22.9903    0.0253 H         1 UNK         0.0873 
     77 H77        29.6567   21.0753    1.7441 H         1 UNK         0.0745 
     78 H78        29.4734   20.0138    0.3792 H         1 UNK         0.0745 
     79 H79        31.9159   20.4971    2.9292 H         1 UNK         0.0705 
     80 H80        33.3838   21.1662    2.2693 H         1 UNK         0.0705 
     81 H81        33.3658   23.6434    1.4741 H         1 UNK         0.1334 
     82 H82        30.8464   26.2039    3.8134 H         1 UNK         0.1417 
     83 H83        30.3158   21.9540    3.9721 H         1 UNK         0.1562 
     84 H84        29.3314   25.2371    5.4695 H         1 UNK         0.0748 
     85 H85        29.4726   23.5406    5.8171 H         1 UNK         0.0748 
     86 H86        26.6400   25.8401    5.1311 H         1 UNK         0.0940 
     87 H87        25.9517   25.4007    3.5937 H         1 UNK         0.0940 
     88 H88        28.6475   26.7992    3.9673 H         1 UNK         0.0703 
     89 H89        27.7365   25.4725    1.6474 H         1 UNK         0.3081 
     90 H90        29.1357   27.7093   -0.7532 H         1 UNK         0.0719 
     91 H91        31.2184   26.6187   -0.2866 H         1 UNK         0.0809 
     92 H92        30.4385   25.1313    0.2162 H         1 UNK         0.0809 
     93 H93        30.4236   25.6139   -1.4838 H         1 UNK         0.0809 
     94 H94        28.1344   25.1808   -1.2955 H         1 UNK         0.2990 
     95 H95        24.6440   26.0279   -1.3886 H         1 UNK         0.0690 
     96 H96        25.7061   26.9196   -3.4468 H         1 UNK         0.0788 
     97 H97        25.0612   25.3104   -3.7292 H         1 UNK         0.0788 
     98 H98        26.7956   25.5416   -3.5186 H         1 UNK         0.0788 
     99 H99        26.5413   23.7666   -1.7730 H         1 UNK         0.2993 
    100 H100       25.3634   22.0858    1.0944 H         1 UNK         0.0949 
    101 H101       24.8508   20.1799   -0.4113 H         1 UNK         0.0767 
    102 H102       23.5846   21.3896   -0.5298 H         1 UNK         0.0767 
    103 H103       24.7875   21.2599   -1.8058 H         1 UNK         0.0767 
    104 H104       27.1271   21.1578   -0.8937 H         1 UNK         0.3013 
    105 H105       26.4399   28.0712    1.5952 H         1 UNK         0.3121 
    106 H106       25.1671   29.9785    3.4009 H         1 UNK         0.0774 
    107 H107       24.1874   30.8754    1.3325 H         1 UNK         0.0815 
    108 H108       25.2782   29.9216    0.3409 H         1 UNK         0.0815 
    109 H109       24.0454   29.1247    1.3193 H         1 UNK         0.0815 
    110 H110       28.3092   29.8185    1.9492 H         1 UNK         0.2987 
    111 H111       28.6637   32.6763    1.5140 H         1 UNK         0.0949 
    112 H112       30.7553   30.4392    1.6910 H         1 UNK         0.0806 
    113 H113       29.9186   30.9074    0.2112 H         1 UNK         0.0806 
    114 H114       30.9873   32.0438    1.0172 H         1 UNK         0.0806 
    115 H115       29.7221   34.1308    2.8370 H         1 UNK         0.3010 
    116 H116       29.7793   33.5882    5.6955 H         1 UNK         0.0829 
    117 H117       30.3211   36.0155    5.8322 H         1 UNK         0.0813 
    118 H118       30.5213   36.0943    4.0879 H         1 UNK         0.0813 
    119 H119       28.9378   35.7481    4.7861 H         1 UNK         0.0813 
    120 H120       32.1367   33.3233    3.1665 H         1 UNK         0.3038 
    121 H121       34.2607   32.6650    4.9705 H         1 UNK         0.0769 
    122 H122       34.4712   35.1868    3.2020 H         1 UNK         0.0811 
    123 H123       35.8414   34.4402    4.0024 H         1 UNK         0.0811 
    124 H124       34.5585   35.1534    4.9608 H         1 UNK         0.0811 
    125 H125       35.6524   31.1620    1.9190 H         1 UNK         0.3204 
    126 H126       36.5941   32.3365    4.4159 H         1 UNK         0.0748 
    127 H127       38.5211   30.8326    4.0165 H         1 UNK         0.0771 
    128 H128       37.6794   30.0620    2.6794 H         1 UNK         0.0771 
    129 H129       38.1521   31.7584    2.5724 H         1 UNK         0.0771 
    130 H130       34.5777   29.6385    3.5681 H         1 UNK         0.2980 
    131 H131       35.1682   27.8881    5.7287 H         1 UNK         0.0545 
    132 H132       32.9926   28.6977    8.4388 H         1 UNK         0.3459 
    133 H133       33.9320   27.4308    7.6945 H         1 UNK         0.3459 
    134 H134       33.0071   26.7851    5.1362 H         1 UNK         0.0616 
    135 H135       32.5863   28.1329    4.1018 H         1 UNK         0.0616 
    136 H136       32.2336   27.1151    1.9404 H         1 UNK         0.0634 
    137 H137       33.3083   26.0615    1.0573 H         1 UNK         0.0634 
@<TRIPOS>BOND
     1    1    2 1    
     2    1   72 1    
     3    1   73 1    
     4    1   74 1    
     5    2    3 2    
     6    2    4 am   BACKBONE|DICT|INTERRES
     7    4    5 1    
     8    4   75 1    
     9    5    6 1    
    10    5   35 1    
    11    5   76 1    
    12    6    7 1    
    13    6   77 1    
    14    6   78 1    
    15    7    8 1    
    16    8    9 1    
    17    8   79 1    
    18    8   80 1    
    19    9   10 ar   
    20    9   14 ar   
    21   10   11 ar   
    22   10   81 1    
    23   11   12 ar   
    24   11   71 1    
    25   12   13 ar   
    26   12   82 1    
    27   13   14 ar   
    28   13   15 1    
    29   14   83 1    
    30   15   16 1    
    31   15   84 1    
    32   15   85 1    
    33   16   17 1    
    34   17   18 1    
    35   17   86 1    
    36   17   87 1    
    37   18   19 1    
    38   18   37 1    
    39   18   88 1    
    40   19   20 am   BACKBONE|DICT|INTERRES
    41   19   89 1    
    42   20   21 2    
    43   20   22 1    
    44   22   23 1    
    45   22   24 1    
    46   22   90 1    
    47   23   91 1    
    48   23   92 1    
    49   23   93 1    
    50   24   25 am   BACKBONE|DICT|INTERRES
    51   24   94 1    
    52   25   26 2    
    53   25   27 1    
    54   27   28 1    
    55   27   29 1    
    56   27   95 1    
    57   28   96 1    
    58   28   97 1    
    59   28   98 1    
    60   29   30 am   BACKBONE|DICT|INTERRES
    61   29   99 1    
    62   30   31 2    
    63   30   32 1    
    64   32   33 1    
    65   32   34 1    
    66   32  100 1    
    67   33  101 1    
    68   33  102 1    
    69   33  103 1    
    70   34   35 am   BACKBONE|DICT|INTERRES
    71   34  104 1    
    72   35   36 2    
    73   37   38 2    
    74   37   39 am   BACKBONE|DICT|INTERRES
    75   39   40 1    
    76   39  105 1    
    77   40   41 1    
    78   40   42 1    
    79   40  106 1    
    80   41  107 1    
    81   41  108 1    
    82   41  109 1    
    83   42   43 2    
    84   42   44 am   BACKBONE|DICT|INTERRES
    85   44   45 1    
    86   44  110 1    
    87   45   46 1    
    88   45   47 1    
    89   45  111 1    
    90   46  112 1    
    91   46  113 1    
    92   46  114 1    
    93   47   48 2    
    94   47   49 am   BACKBONE|DICT|INTERRES
    95   49   50 1    
    96   49  115 1    
    97   50   51 1    
    98   50   52 1    
    99   50  116 1    
   100   51  117 1    
   101   51  118 1    
   102   51  119 1    
   103   52   53 2    
   104   52   54 am   BACKBONE|DICT|INTERRES
   105   54   55 1    
   106   54  120 1    
   107   55   56 1    
   108   55   57 1    
   109   55  121 1    
   110   56  122 1    
   111   56  123 1    
   112   56  124 1    
   113   57   58 2    
   114   57   59 am   BACKBONE|DICT|INTERRES
   115   59   60 1    
   116   59  125 1    
   117   60   61 1    
   118   60   62 1    
   119   60  126 1    
   120   61  127 1    
   121   61  128 1    
   122   61  129 1    
   123   62   63 2    
   124   62   64 am   BACKBONE|DICT|INTERRES
   125   64   65 1    
   126   64  130 1    
   127   65   66 1    
   128   65   69 1    
   129   65  131 1    
   130   66   67 am   BACKBONE|DICT|INTERRES
   131   66   68 2    
   132   67  132 1    
   133   67  133 1    
   134   69   70 1    
   135   69  134 1    
   136   69  135 1    
   137   70   71 1    
   138   71  136 1    
   139   71  137 1    
@<TRIPOS>SUBSTRUCTURE
     1 UNK         1 GROUP             0       ****    0 ROOT    
