@<TRIPOS>MOLECULE
3R136
137   139    1
SMALL
USER_CHARGES


@<TRIPOS>ATOM
      1 CA         26.3594   21.3504    0.9733 C.3       0 UNK        -0.1979 
      2 C          27.1550   22.1051   -0.0801 C.2       0 UNK         0.4864 
      3 O          26.5895   22.5104   -1.0963 O.2       0 UNK        -0.5359 
      4 N          28.4625   22.2837    0.1473 N.am      1 UNK        -0.4318 
      5 CA         29.3902   22.9439   -0.7793 C.3       1 UNK         0.0824 
      6 C6         30.8731   22.7074   -0.3984 C.3       12 UNK        -0.0944 
      7 S7         31.2713   20.9373   -0.1833 S.3       12 UNK        -0.2672 
      8 C8         32.5193   20.9746    1.1477 C.3       12 UNK         0.0333 
      9 C9         32.0323   21.6777    2.4098 C.ar      12 UNK        -0.0807 
     10 C10        32.7287   22.7858    2.9042 C.ar      12 UNK        -0.0894 
     11 C11        32.2922   23.4416    4.0585 C.ar      12 UNK        -0.0804 
     12 C12        31.1497   22.9836    4.7195 C.ar      12 UNK        -0.0824 
     13 C13        30.4320   21.8912    4.2236 C.ar      12 UNK        -0.0762 
     14 C14        30.8871   21.2315    3.0778 C.ar      12 UNK        -0.0782 
     15 C15        29.1608   21.4275    4.9187 C.3       12 UNK         0.0230 
     16 S16        27.6756   22.1718    4.1691 S.3       12 UNK        -0.2608 
     17 C17        27.7944   23.9067    4.7219 C.3       12 UNK        -0.0989 
     18 CA         28.1807   24.8804    3.5703 C.3       5 UNK         0.0716 
     19 N          27.2123   24.9440    2.4685 N.am      5 UNK        -0.4135 
     20 C          25.9167   25.2751    2.5514 C.2       4 UNK         0.5031 
     21 O          25.3333   25.5402    3.6045 O.2       4 UNK        -0.5229 
     22 CA         25.1500   25.3158    1.2147 C.3       4 UNK         0.0329 
     23 CB         23.6262   25.4807    1.3988 C.3       4 UNK        -0.2001 
     24 N          25.6710   26.3298    0.2909 N.am      4 UNK        -0.4303 
     25 C          25.7574   27.6545    0.4859 C.2       3 UNK         0.5044 
     26 O          25.4034   28.2250    1.5186 O.2       3 UNK        -0.5152 
     27 CA         26.3293   28.4760   -0.6867 C.3       3 UNK         0.0319 
     28 CB         26.5040   29.9685   -0.3440 C.3       3 UNK        -0.2001 
     29 N          27.6131   27.9319   -1.1358 N.am      3 UNK        -0.4354 
     30 C          27.7586   26.9696   -2.0558 C.2       2 UNK         0.4964 
     31 O          26.8066   26.4497   -2.6404 O.2       2 UNK        -0.5047 
     32 CA         29.1806   26.4628   -2.3724 C.3       2 UNK         0.0288 
     33 CB         30.3282   27.2825   -1.7415 C.3       2 UNK        -0.2113 
     34 N          29.3360   25.0389   -2.0512 N.am      2 UNK        -0.4145 
     35 C          29.1094   24.4561   -0.8637 C.2       1 UNK         0.5006 
     36 O          28.7363   25.0584    0.1479 O.2       1 UNK        -0.5103 
     37 C          28.5407   26.2965    4.0655 C.2       5 UNK         0.5055 
     38 O          28.5950   26.5377    5.2736 O.2       5 UNK        -0.5220 
     39 N          28.8004   27.2040    3.1169 N.am      6 UNK        -0.4450 
     40 CA         29.2904   28.5593    3.3431 C.3       6 UNK         0.0367 
     41 CB         28.1617   29.4680    3.8659 C.3       6 UNK        -0.1929 
     42 C          29.8312   29.0956    2.0169 C.2       6 UNK         0.5070 
     43 O          29.3418   28.7020    0.9585 O.2       6 UNK        -0.5237 
     44 N          30.7919   30.0153    2.0938 N.am      7 UNK        -0.4739 
     45 CA         31.3030   30.8036    0.9776 C.3       7 UNK         0.0276 
     46 CB         32.7102   30.3124    0.5895 C.3       7 UNK        -0.1927 
     47 C          31.2774   32.2625    1.4442 C.2       7 UNK         0.5013 
     48 O          32.3188   32.8235    1.7938 O.2       7 UNK        -0.5193 
     49 N          30.0584   32.8153    1.5304 N.am      8 UNK        -0.4253 
     50 CA         29.7224   34.1077    2.1363 C.3       8 UNK         0.0242 
     51 CB         30.2976   35.2798    1.3064 C.3       8 UNK        -0.2000 
     52 C          30.1183   34.1196    3.6255 C.2       8 UNK         0.4948 
     53 O          29.5246   33.3723    4.4041 O.2       8 UNK        -0.5275 
     54 N          31.1135   34.9367    3.9914 N.am      9 UNK        -0.4246 
     55 CA         31.6754   35.0126    5.3420 C.3       9 UNK         0.0261 
     56 CB         32.3546   36.3817    5.5175 C.3       9 UNK        -0.1959 
     57 C          32.6661   33.8762    5.6673 C.2       9 UNK         0.5033 
     58 O          33.0030   33.7077    6.8409 O.2       9 UNK        -0.5390 
     59 N          33.1366   33.1436    4.6493 N.am      10 UNK        -0.4215 
     60 CA         34.1041   32.0519    4.7653 C.3       10 UNK         0.0240 
     61 CB         35.2793   32.3520    3.8121 C.3       10 UNK        -0.1982 
     62 C          33.4279   30.7060    4.4491 C.2       10 UNK         0.4970 
     63 O          32.1979   30.6157    4.4399 O.2       10 UNK        -0.4916 
     64 N          34.2450   29.6836    4.1811 N.am      11 UNK        -0.4279 
     65 CA         33.8428   28.3645    3.6859 C.3       11 UNK         0.1003 
     66 C          35.0090   27.7212    2.8901 C.2       11 UNK         0.5709 
     67 N          34.7169   26.7731    2.0114 N.am      11 UNK        -0.7358 
     68 O          36.1758   28.0704    3.0667 O.2       11 UNK        -0.4999 
     69 C69        33.2979   27.4501    4.8160 C.3       12 UNK        -0.0954 
     70 S70        32.1567   26.1836    4.1742 S.3       12 UNK        -0.2268 
     71 C71        33.0430   24.6532    4.5870 C.3       12 UNK         0.0203 
     72 H72        27.0059   20.7298    1.5934 H         1 UNK         0.0888 
     73 H73        25.8273   22.0471    1.6200 H         1 UNK         0.0888 
     74 H74        25.6272   20.6974    0.4991 H         1 UNK         0.0888 
     75 H75        28.8747   21.9478    1.0055 H         1 UNK         0.3017 
     76 H76        29.2206   22.5103   -1.7675 H         1 UNK         0.0873 
     77 H77        31.5340   23.1058   -1.1705 H         1 UNK         0.0745 
     78 H78        31.1144   23.2556    0.5134 H         1 UNK         0.0745 
     79 H79        33.4220   21.4510    0.7618 H         1 UNK         0.0705 
     80 H80        32.7971   19.9501    1.3984 H         1 UNK         0.0705 
     81 H81        33.6099   23.1427    2.3883 H         1 UNK         0.1334 
     82 H82        30.8108   23.4961    5.6092 H         1 UNK         0.1417 
     83 H83        30.3408   20.3804    2.6941 H         1 UNK         0.1562 
     84 H84        29.1947   21.6605    5.9842 H         1 UNK         0.0748 
     85 H85        29.0808   20.3415    4.8504 H         1 UNK         0.0748 
     86 H86        28.5198   23.9634    5.5339 H         1 UNK         0.0940 
     87 H87        26.8439   24.1922    5.1733 H         1 UNK         0.0940 
     88 H88        29.1007   24.4980    3.1242 H         1 UNK         0.0703 
     89 H89        27.6248   24.8374    1.5425 H         1 UNK         0.3081 
     90 H90        25.3125   24.3522    0.7318 H         1 UNK         0.0719 
     91 H91        23.3739   26.4258    1.8811 H         1 UNK         0.0809 
     92 H92        23.1048   25.4428    0.4425 H         1 UNK         0.0809 
     93 H93        23.2212   24.6814    2.0207 H         1 UNK         0.0809 
     94 H94        26.0150   25.9793   -0.5954 H         1 UNK         0.2990 
     95 H95        25.6048   28.4151   -1.5015 H         1 UNK         0.0690 
     96 H96        26.9152   30.5240   -1.1868 H         1 UNK         0.0788 
     97 H97        27.1658   30.1149    0.5095 H         1 UNK         0.0788 
     98 H98        25.5457   30.4244   -0.0924 H         1 UNK         0.0788 
     99 H99        28.4244   28.2240   -0.5925 H         1 UNK         0.2993 
    100 H100       29.2809   26.5507   -3.4554 H         1 UNK         0.0949 
    101 H101       30.4154   27.1072   -0.6701 H         1 UNK         0.0767 
    102 H102       31.2851   27.0114   -2.1874 H         1 UNK         0.0767 
    103 H103       30.1978   28.3539   -1.8998 H         1 UNK         0.0767 
    104 H104       29.6121   24.4516   -2.8258 H         1 UNK         0.3013 
    105 H105       28.7472   26.9442    2.1383 H         1 UNK         0.3121 
    106 H106       30.1053   28.5271    4.0698 H         1 UNK         0.0774 
    107 H107       28.5161   30.4907    4.0045 H         1 UNK         0.0815 
    108 H108       27.3218   29.5023    3.1707 H         1 UNK         0.0815 
    109 H109       27.7842   29.1260    4.8291 H         1 UNK         0.0815 
    110 H110       31.1472   30.2845    3.0120 H         1 UNK         0.2987 
    111 H111       30.6513   30.7153    0.1051 H         1 UNK         0.0949 
    112 H112       33.4239   30.4252    1.4050 H         1 UNK         0.0806 
    113 H113       32.6951   29.2618    0.2989 H         1 UNK         0.0806 
    114 H114       33.0960   30.8796   -0.2582 H         1 UNK         0.0806 
    115 H115       29.2672   32.2420    1.2731 H         1 UNK         0.3010 
    116 H116       28.6347   34.1913    2.1113 H         1 UNK         0.0829 
    117 H117       29.9131   35.2565    0.2866 H         1 UNK         0.0813 
    118 H118       30.0079   36.2420    1.7312 H         1 UNK         0.0813 
    119 H119       31.3858   35.2579    1.2427 H         1 UNK         0.0813 
    120 H120       31.5564   35.5006    3.2800 H         1 UNK         0.3038 
    121 H121       30.8583   34.9451    6.0637 H         1 UNK         0.0769 
    122 H122       32.7521   36.4944    6.5272 H         1 UNK         0.0811 
    123 H123       31.6505   37.1984    5.3568 H         1 UNK         0.0811 
    124 H124       33.1866   36.5121    4.8243 H         1 UNK         0.0811 
    125 H125       32.7491   33.2797    3.7199 H         1 UNK         0.3204 
    126 H126       34.4920   31.9875    5.7837 H         1 UNK         0.0748 
    127 H127       34.9709   32.3083    2.7663 H         1 UNK         0.0771 
    128 H128       35.6878   33.3464    3.9939 H         1 UNK         0.0771 
    129 H129       36.1005   31.6473    3.9458 H         1 UNK         0.0771 
    130 H130       35.2464   29.8272    4.1866 H         1 UNK         0.2980 
    131 H131       33.0432   28.5386    2.9643 H         1 UNK         0.0545 
    132 H132       33.7660   26.4661    1.8811 H         1 UNK         0.3459 
    133 H133       35.4625   26.3453    1.4858 H         1 UNK         0.3459 
    134 H134       32.7264   28.0374    5.5360 H         1 UNK         0.0616 
    135 H135       34.1096   26.9923    5.3841 H         1 UNK         0.0616 
    136 H136       34.0510   24.6933    4.1710 H         1 UNK         0.0634 
    137 H137       33.1528   24.5776    5.6698 H         1 UNK         0.0634 
@<TRIPOS>BOND
     1    1    2 1    
     2    1   72 1    
     3    1   73 1    
     4    1   74 1    
     5    2    3 2    
     6    2    4 am   BACKBONE|DICT|INTERRES
     7    4    5 1    
     8    4   75 1    
     9    5    6 1    
    10    5   35 1    
    11    5   76 1    
    12    6    7 1    
    13    6   77 1    
    14    6   78 1    
    15    7    8 1    
    16    8    9 1    
    17    8   79 1    
    18    8   80 1    
    19    9   10 ar   
    20    9   14 ar   
    21   10   11 ar   
    22   10   81 1    
    23   11   12 ar   
    24   11   71 1    
    25   12   13 ar   
    26   12   82 1    
    27   13   14 ar   
    28   13   15 1    
    29   14   83 1    
    30   15   16 1    
    31   15   84 1    
    32   15   85 1    
    33   16   17 1    
    34   17   18 1    
    35   17   86 1    
    36   17   87 1    
    37   18   19 1    
    38   18   37 1    
    39   18   88 1    
    40   19   20 am   BACKBONE|DICT|INTERRES
    41   19   89 1    
    42   20   21 2    
    43   20   22 1    
    44   22   23 1    
    45   22   24 1    
    46   22   90 1    
    47   23   91 1    
    48   23   92 1    
    49   23   93 1    
    50   24   25 am   BACKBONE|DICT|INTERRES
    51   24   94 1    
    52   25   26 2    
    53   25   27 1    
    54   27   28 1    
    55   27   29 1    
    56   27   95 1    
    57   28   96 1    
    58   28   97 1    
    59   28   98 1    
    60   29   30 am   BACKBONE|DICT|INTERRES
    61   29   99 1    
    62   30   31 2    
    63   30   32 1    
    64   32   33 1    
    65   32   34 1    
    66   32  100 1    
    67   33  101 1    
    68   33  102 1    
    69   33  103 1    
    70   34   35 am   BACKBONE|DICT|INTERRES
    71   34  104 1    
    72   35   36 2    
    73   37   38 2    
    74   37   39 am   BACKBONE|DICT|INTERRES
    75   39   40 1    
    76   39  105 1    
    77   40   41 1    
    78   40   42 1    
    79   40  106 1    
    80   41  107 1    
    81   41  108 1    
    82   41  109 1    
    83   42   43 2    
    84   42   44 am   BACKBONE|DICT|INTERRES
    85   44   45 1    
    86   44  110 1    
    87   45   46 1    
    88   45   47 1    
    89   45  111 1    
    90   46  112 1    
    91   46  113 1    
    92   46  114 1    
    93   47   48 2    
    94   47   49 am   BACKBONE|DICT|INTERRES
    95   49   50 1    
    96   49  115 1    
    97   50   51 1    
    98   50   52 1    
    99   50  116 1    
   100   51  117 1    
   101   51  118 1    
   102   51  119 1    
   103   52   53 2    
   104   52   54 am   BACKBONE|DICT|INTERRES
   105   54   55 1    
   106   54  120 1    
   107   55   56 1    
   108   55   57 1    
   109   55  121 1    
   110   56  122 1    
   111   56  123 1    
   112   56  124 1    
   113   57   58 2    
   114   57   59 am   BACKBONE|DICT|INTERRES
   115   59   60 1    
   116   59  125 1    
   117   60   61 1    
   118   60   62 1    
   119   60  126 1    
   120   61  127 1    
   121   61  128 1    
   122   61  129 1    
   123   62   63 2    
   124   62   64 am   BACKBONE|DICT|INTERRES
   125   64   65 1    
   126   64  130 1    
   127   65   66 1    
   128   65   69 1    
   129   65  131 1    
   130   66   67 am   BACKBONE|DICT|INTERRES
   131   66   68 2    
   132   67  132 1    
   133   67  133 1    
   134   69   70 1    
   135   69  134 1    
   136   69  135 1    
   137   70   71 1    
   138   71  136 1    
   139   71  137 1    
@<TRIPOS>SUBSTRUCTURE
     1 UNK         1 GROUP             0       ****    0 ROOT    
