@<TRIPOS>MOLECULE
3R136
137   139    1
SMALL
USER_CHARGES


@<TRIPOS>ATOM
      1 CA         27.0008   21.5095    1.0702 C.3       0 UNK        -0.1979 
      2 C          27.3100   22.5507    0.0066 C.2       0 UNK         0.4864 
      3 O          26.4647   22.8229   -0.8483 O.2       0 UNK        -0.5359 
      4 N          28.5137   23.1388    0.0488 N.am      1 UNK        -0.4318 
      5 CA         28.9700   24.1767   -0.8839 C.3       1 UNK         0.0824 
      6 C6         30.4693   24.5107   -0.7116 C.3       12 UNK        -0.0944 
      7 S7         31.5073   23.0786   -1.1557 S.3       12 UNK        -0.2672 
      8 C8         33.0467   23.4318   -0.2409 C.3       12 UNK         0.0333 
      9 C9         32.9416   23.3708    1.2838 C.ar      12 UNK        -0.0807 
     10 C10        33.9295   24.0050    2.0418 C.ar      12 UNK        -0.0894 
     11 C11        33.8908   23.9813    3.4384 C.ar      12 UNK        -0.0804 
     12 C12        32.8401   23.3239    4.0861 C.ar      12 UNK        -0.0824 
     13 C13        31.8524   22.6666    3.3435 C.ar      12 UNK        -0.0762 
     14 C14        31.9180   22.6817    1.9474 C.ar      12 UNK        -0.0782 
     15 C15        30.7314   21.9059    4.0416 C.3       12 UNK         0.0230 
     16 S16        29.1014   22.6885    3.8028 S.3       12 UNK        -0.2608 
     17 C17        29.3209   24.2603    4.6963 C.3       12 UNK        -0.0989 
     18 CA         29.2921   25.4734    3.7267 C.3       5 UNK         0.0716 
     19 N          27.9559   25.7832    3.1917 N.am      5 UNK        -0.4135 
     20 C          26.8965   26.2159    3.8963 C.2       4 UNK         0.5031 
     21 O          26.8331   26.2208    5.1258 O.2       4 UNK        -0.5229 
     22 CA         25.7053   26.7792    3.1122 C.3       4 UNK         0.0329 
     23 CB         25.9861   28.2352    2.6989 C.3       4 UNK        -0.2001 
     24 N          25.3881   25.9997    1.9169 N.am      4 UNK        -0.4303 
     25 C          24.1623   25.5601    1.5941 C.2       3 UNK         0.5044 
     26 O          23.1897   25.6369    2.3473 O.2       3 UNK        -0.5152 
     27 CA         23.9813   24.9468    0.1868 C.3       3 UNK         0.0319 
     28 CB         22.5512   25.1266   -0.3657 C.3       3 UNK        -0.2001 
     29 N          24.9812   25.4150   -0.7820 N.am      3 UNK        -0.4354 
     30 C          25.2151   26.6826   -1.1688 C.2       2 UNK         0.4964 
     31 O          24.4824   27.6295   -0.8797 O.2       2 UNK        -0.5047 
     32 CA         26.5067   26.9492   -1.9767 C.3       2 UNK         0.0288 
     33 CB         27.1352   28.3176   -1.6326 C.3       2 UNK        -0.2113 
     34 N          27.5148   25.8828   -1.8656 N.am      2 UNK        -0.4145 
     35 C          28.0952   25.4340   -0.7418 C.2       1 UNK         0.5006 
     36 O          27.9064   25.9159    0.3798 O.2       1 UNK        -0.5103 
     37 C          29.9060   26.7458    4.3602 C.2       5 UNK         0.5055 
     38 O          29.9153   26.8644    5.5851 O.2       5 UNK        -0.5220 
     39 N          30.3937   27.7082    3.5671 N.am      6 UNK        -0.4450 
     40 CA         30.5349   27.7155    2.1123 C.3       6 UNK         0.0367 
     41 CB         31.9410   27.1983    1.7506 C.3       6 UNK        -0.1929 
     42 C          30.2553   29.1221    1.5582 C.2       6 UNK         0.5070 
     43 O          29.7814   29.9974    2.2875 O.2       6 UNK        -0.5237 
     44 N          30.5222   29.2994    0.2569 N.am      7 UNK        -0.4739 
     45 CA         30.3330   30.5420   -0.4980 C.3       7 UNK         0.0276 
     46 CB         30.7248   30.2924   -1.9640 C.3       7 UNK        -0.1927 
     47 C          31.1439   31.7234    0.0644 C.2       7 UNK         0.5013 
     48 O          32.2135   31.5158    0.6411 O.2       7 UNK        -0.5193 
     49 N          30.6177   32.9430   -0.1252 N.am      8 UNK        -0.4253 
     50 CA         31.1982   34.2289    0.2974 C.3       8 UNK         0.0242 
     51 CB         32.4553   34.5515   -0.5392 C.3       8 UNK        -0.2000 
     52 C          31.4593   34.3305    1.8167 C.2       8 UNK         0.4948 
     53 O          32.3701   35.0477    2.2341 O.2       8 UNK        -0.5275 
     54 N          30.6596   33.5985    2.6082 N.am      9 UNK        -0.4246 
     55 CA         30.7462   33.4351    4.0638 C.3       9 UNK         0.0261 
     56 CB         30.4702   34.7689    4.7918 C.3       9 UNK        -0.1959 
     57 C          32.0418   32.7472    4.5457 C.2       9 UNK         0.5033 
     58 O          32.4189   32.9190    5.7076 O.2       9 UNK        -0.5390 
     59 N          32.6915   31.9597    3.6749 N.am      10 UNK        -0.4215 
     60 CA         33.8124   31.0893    4.0371 C.3       10 UNK         0.0240 
     61 CB         34.5251   30.6243    2.7567 C.3       10 UNK        -0.1982 
     62 C          33.3311   29.8782    4.8543 C.2       10 UNK         0.4970 
     63 O          32.1489   29.5352    4.8007 O.2       10 UNK        -0.4916 
     64 N          34.2650   29.2445    5.5741 N.am      11 UNK        -0.4279 
     65 CA         34.0638   28.0130    6.3642 C.3       11 UNK         0.1003 
     66 C          33.1445   28.1653    7.6159 C.2       11 UNK         0.5709 
     67 N          32.7553   29.3703    8.0159 N.am      11 UNK        -0.7358 
     68 O          32.8211   27.1780    8.2722 O.2       11 UNK        -0.4999 
     69 C69        33.6775   26.7864    5.4846 C.3       12 UNK        -0.0954 
     70 S70        34.9148   26.4486    4.1883 S.3       12 UNK        -0.2268 
     71 C71        35.0150   24.6329    4.2316 C.3       12 UNK         0.0203 
     72 H72        26.4144   20.6958    0.6445 H         1 UNK         0.0888 
     73 H73        27.9112   21.0818    1.4892 H         1 UNK         0.0888 
     74 H74        26.4264   21.9593    1.8797 H         1 UNK         0.0888 
     75 H75        29.1545   22.9016    0.7906 H         1 UNK         0.3017 
     76 H76        28.8299   23.7810   -1.8926 H         1 UNK         0.0873 
     77 H77        30.6784   24.8205    0.3136 H         1 UNK         0.0745 
     78 H78        30.7609   25.3440   -1.3540 H         1 UNK         0.0745 
     79 H79        33.4045   24.4167   -0.5457 H         1 UNK         0.0705 
     80 H80        33.8049   22.7154   -0.5596 H         1 UNK         0.0705 
     81 H81        34.7405   24.5193    1.5437 H         1 UNK         0.1334 
     82 H82        32.8062   23.3029    5.1668 H         1 UNK         0.1417 
     83 H83        31.1650   22.1487    1.3860 H         1 UNK         0.1562 
     84 H84        30.9308   21.8090    5.1101 H         1 UNK         0.0748 
     85 H85        30.6924   20.8891    3.6482 H         1 UNK         0.0748 
     86 H86        30.2680   24.2239    5.2375 H         1 UNK         0.0940 
     87 H87        28.5529   24.3411    5.4659 H         1 UNK         0.0940 
     88 H88        29.9220   25.2026    2.8789 H         1 UNK         0.0703 
     89 H89        27.9069   25.8301    2.1767 H         1 UNK         0.3081 
     90 H90        24.8537   26.7838    3.7958 H         1 UNK         0.0719 
     91 H91        26.8286   28.3055    2.0092 H         1 UNK         0.0809 
     92 H92        25.1192   28.6809    2.2106 H         1 UNK         0.0809 
     93 H93        26.2231   28.8512    3.5675 H         1 UNK         0.0809 
     94 H94        26.1355   25.8877    1.2399 H         1 UNK         0.2990 
     95 H95        24.1544   23.8763    0.3048 H         1 UNK         0.0690 
     96 H96        22.4508   24.6849   -1.3570 H         1 UNK         0.0788 
     97 H97        22.2726   26.1784   -0.4364 H         1 UNK         0.0788 
     98 H98        21.8182   24.6402    0.2791 H         1 UNK         0.0788 
     99 H99        25.6340   24.6955   -1.0782 H         1 UNK         0.2993 
    100 H100       26.2010   26.9776   -3.0237 H         1 UNK         0.0949 
    101 H101       28.0219   28.5034   -2.2365 H         1 UNK         0.0767 
    102 H102       26.4384   29.1333   -1.8289 H         1 UNK         0.0767 
    103 H103       27.4234   28.3829   -0.5828 H         1 UNK         0.0767 
    104 H104       27.7161   25.3960   -2.7288 H         1 UNK         0.3013 
    105 H105       30.7760   28.5404    4.0135 H         1 UNK         0.3121 
    106 H106       29.7908   27.0711    1.6512 H         1 UNK         0.0774 
    107 H107       32.0757   27.0948    0.6739 H         1 UNK         0.0815 
    108 H108       32.7187   27.8680    2.1190 H         1 UNK         0.0815 
    109 H109       32.1247   26.2174    2.1876 H         1 UNK         0.0815 
    110 H110       30.9320   28.5329   -0.2547 H         1 UNK         0.2987 
    111 H111       29.2711   30.7929   -0.4511 H         1 UNK         0.0949 
    112 H112       30.5381   31.1759   -2.5762 H         1 UNK         0.0806 
    113 H113       31.7842   30.0501   -2.0600 H         1 UNK         0.0806 
    114 H114       30.1552   29.4733   -2.4011 H         1 UNK         0.0806 
    115 H115       29.7320   33.0089   -0.6087 H         1 UNK         0.3010 
    116 H116       30.4499   34.9907    0.0733 H         1 UNK         0.0829 
    117 H117       32.2477   34.4925   -1.6076 H         1 UNK         0.0813 
    118 H118       32.8141   35.5615   -0.3369 H         1 UNK         0.0813 
    119 H119       33.2740   33.8658   -0.3180 H         1 UNK         0.0813 
    120 H120       29.9583   33.0283    2.1551 H         1 UNK         0.3038 
    121 H121       29.9409   32.7482    4.3288 H         1 UNK         0.0769 
    122 H122       30.3707   34.6149    5.8669 H         1 UNK         0.0811 
    123 H123       29.5435   35.2265    4.4457 H         1 UNK         0.0811 
    124 H124       31.2767   35.4870    4.6419 H         1 UNK         0.0811 
    125 H125       32.3207   31.8486    2.7368 H         1 UNK         0.3204 
    126 H126       34.5166   31.6640    4.6424 H         1 UNK         0.0748 
    127 H127       35.4054   30.0238    2.9895 H         1 UNK         0.0771 
    128 H128       33.8720   30.0134    2.1326 H         1 UNK         0.0771 
    129 H129       34.8589   31.4721    2.1579 H         1 UNK         0.0771 
    130 H130       35.2086   29.6030    5.5697 H         1 UNK         0.2980 
    131 H131       35.0438   27.7959    6.7904 H         1 UNK         0.0545 
    132 H132       32.1760   29.4539    8.8360 H         1 UNK         0.3459 
    133 H133       33.0051   30.1901    7.4864 H         1 UNK         0.3459 
    134 H134       33.5660   25.8948    6.1030 H         1 UNK         0.0616 
    135 H135       32.7133   26.9390    5.0040 H         1 UNK         0.0616 
    136 H136       35.0272   24.2809    5.2641 H         1 UNK         0.0634 
    137 H137       35.9710   24.3312    3.8013 H         1 UNK         0.0634 
@<TRIPOS>BOND
     1    1    2 1    
     2    1   72 1    
     3    1   73 1    
     4    1   74 1    
     5    2    3 2    
     6    2    4 am   BACKBONE|DICT|INTERRES
     7    4    5 1    
     8    4   75 1    
     9    5    6 1    
    10    5   35 1    
    11    5   76 1    
    12    6    7 1    
    13    6   77 1    
    14    6   78 1    
    15    7    8 1    
    16    8    9 1    
    17    8   79 1    
    18    8   80 1    
    19    9   10 ar   
    20    9   14 ar   
    21   10   11 ar   
    22   10   81 1    
    23   11   12 ar   
    24   11   71 1    
    25   12   13 ar   
    26   12   82 1    
    27   13   14 ar   
    28   13   15 1    
    29   14   83 1    
    30   15   16 1    
    31   15   84 1    
    32   15   85 1    
    33   16   17 1    
    34   17   18 1    
    35   17   86 1    
    36   17   87 1    
    37   18   19 1    
    38   18   37 1    
    39   18   88 1    
    40   19   20 am   BACKBONE|DICT|INTERRES
    41   19   89 1    
    42   20   21 2    
    43   20   22 1    
    44   22   23 1    
    45   22   24 1    
    46   22   90 1    
    47   23   91 1    
    48   23   92 1    
    49   23   93 1    
    50   24   25 am   BACKBONE|DICT|INTERRES
    51   24   94 1    
    52   25   26 2    
    53   25   27 1    
    54   27   28 1    
    55   27   29 1    
    56   27   95 1    
    57   28   96 1    
    58   28   97 1    
    59   28   98 1    
    60   29   30 am   BACKBONE|DICT|INTERRES
    61   29   99 1    
    62   30   31 2    
    63   30   32 1    
    64   32   33 1    
    65   32   34 1    
    66   32  100 1    
    67   33  101 1    
    68   33  102 1    
    69   33  103 1    
    70   34   35 am   BACKBONE|DICT|INTERRES
    71   34  104 1    
    72   35   36 2    
    73   37   38 2    
    74   37   39 am   BACKBONE|DICT|INTERRES
    75   39   40 1    
    76   39  105 1    
    77   40   41 1    
    78   40   42 1    
    79   40  106 1    
    80   41  107 1    
    81   41  108 1    
    82   41  109 1    
    83   42   43 2    
    84   42   44 am   BACKBONE|DICT|INTERRES
    85   44   45 1    
    86   44  110 1    
    87   45   46 1    
    88   45   47 1    
    89   45  111 1    
    90   46  112 1    
    91   46  113 1    
    92   46  114 1    
    93   47   48 2    
    94   47   49 am   BACKBONE|DICT|INTERRES
    95   49   50 1    
    96   49  115 1    
    97   50   51 1    
    98   50   52 1    
    99   50  116 1    
   100   51  117 1    
   101   51  118 1    
   102   51  119 1    
   103   52   53 2    
   104   52   54 am   BACKBONE|DICT|INTERRES
   105   54   55 1    
   106   54  120 1    
   107   55   56 1    
   108   55   57 1    
   109   55  121 1    
   110   56  122 1    
   111   56  123 1    
   112   56  124 1    
   113   57   58 2    
   114   57   59 am   BACKBONE|DICT|INTERRES
   115   59   60 1    
   116   59  125 1    
   117   60   61 1    
   118   60   62 1    
   119   60  126 1    
   120   61  127 1    
   121   61  128 1    
   122   61  129 1    
   123   62   63 2    
   124   62   64 am   BACKBONE|DICT|INTERRES
   125   64   65 1    
   126   64  130 1    
   127   65   66 1    
   128   65   69 1    
   129   65  131 1    
   130   66   67 am   BACKBONE|DICT|INTERRES
   131   66   68 2    
   132   67  132 1    
   133   67  133 1    
   134   69   70 1    
   135   69  134 1    
   136   69  135 1    
   137   70   71 1    
   138   71  136 1    
   139   71  137 1    
@<TRIPOS>SUBSTRUCTURE
     1 UNK         1 GROUP             0       ****    0 ROOT    
