@<TRIPOS>MOLECULE
3R136
137   139    1
SMALL
USER_CHARGES


@<TRIPOS>ATOM
      1 CA         26.6451   18.9713    1.8431 C.3       0 UNK        -0.1979 
      2 C          26.9402   20.1399    0.9146 C.2       0 UNK         0.4864 
      3 O          26.3508   20.2302   -0.1627 O.2       0 UNK        -0.5359 
      4 N          27.8397   21.0420    1.3279 N.am      1 UNK        -0.4318 
      5 CA         28.2717   22.2224    0.5676 C.3       1 UNK         0.0824 
      6 C6         29.7501   22.5807    0.8646 C.3       12 UNK        -0.0944 
      7 S7         30.1210   22.9093    2.6256 S.3       12 UNK        -0.2672 
      8 C8         31.9356   22.7136    2.6689 C.3       12 UNK         0.0333 
      9 C9         32.6664   23.8680    1.9915 C.ar      12 UNK        -0.0807 
     10 C10        33.2744   24.8762    2.7473 C.ar      12 UNK        -0.0894 
     11 C11        33.9794   25.9170    2.1224 C.ar      12 UNK        -0.0804 
     12 C12        34.0015   25.9754    0.7234 C.ar      12 UNK        -0.0824 
     13 C13        33.3856   24.9812   -0.0433 C.ar      12 UNK        -0.0762 
     14 C14        32.7593   23.9126    0.6000 C.ar      12 UNK        -0.0782 
     15 C15        33.4229   25.0284   -1.5652 C.3       12 UNK         0.0230 
     16 S16        31.7611   24.8842   -2.3099 S.3       12 UNK        -0.2608 
     17 C17        31.1673   26.6080   -2.2952 C.3       12 UNK        -0.0989 
     18 CA         29.7432   26.7506   -1.6815 C.3       5 UNK         0.0716 
     19 N          29.6842   26.4607   -0.2383 N.am      5 UNK        -0.4135 
     20 C          30.2689   27.1852    0.7274 C.2       4 UNK         0.5031 
     21 O          30.9697   28.1720    0.5035 O.2       4 UNK        -0.5229 
     22 CA         29.9520   26.7830    2.1775 C.3       4 UNK         0.0329 
     23 CB         30.7772   27.5814    3.2015 C.3       4 UNK        -0.2001 
     24 N          28.5239   26.8826    2.4992 N.am      4 UNK        -0.4303 
     25 C          27.7433   27.9727    2.4593 C.2       3 UNK         0.5044 
     26 O          28.1330   29.0847    2.1014 O.2       3 UNK        -0.5152 
     27 CA         26.2775   27.7922    2.9076 C.3       3 UNK         0.0319 
     28 CB         25.4246   29.0544    2.6765 C.3       3 UNK        -0.2001 
     29 N          25.6362   26.6515    2.2475 N.am      3 UNK        -0.4354 
     30 C          25.8008   25.3700    2.5995 C.2       2 UNK         0.4964 
     31 O          26.4684   25.0208    3.5751 O.2       2 UNK        -0.5047 
     32 CA         25.1739   24.2881    1.7001 C.3       2 UNK         0.0288 
     33 CB         24.4898   24.8326    0.4236 C.3       2 UNK        -0.2113 
     34 N          26.1674   23.2618    1.3609 N.am      2 UNK        -0.4145 
     35 C          27.3329   23.4429    0.7172 C.2       1 UNK         0.5006 
     36 O          27.6927   24.5299    0.2559 O.2       1 UNK        -0.5103 
     37 C          29.0869   28.1150   -2.0104 C.2       5 UNK         0.5055 
     38 O          29.5124   28.8026   -2.9403 O.2       5 UNK        -0.5220 
     39 N          28.0711   28.4838   -1.2142 N.am      6 UNK        -0.4450 
     40 CA         27.3491   29.7603   -1.1952 C.3       6 UNK         0.0367 
     41 CB         26.6171   30.0127   -2.5303 C.3       6 UNK        -0.1929 
     42 C          28.1974   30.9719   -0.7532 C.2       6 UNK         0.5070 
     43 O          27.7171   32.1016   -0.8581 O.2       6 UNK        -0.5237 
     44 N          29.4072   30.7525   -0.2161 N.am      7 UNK        -0.4739 
     45 CA         30.2944   31.7954    0.3073 C.3       7 UNK         0.0276 
     46 CB         31.7594   31.3417    0.1643 C.3       7 UNK        -0.1927 
     47 C          29.9336   32.1769    1.7562 C.2       7 UNK         0.5013 
     48 O          30.8065   32.1843    2.6244 O.2       7 UNK        -0.5193 
     49 N          28.6485   32.4810    1.9913 N.am      8 UNK        -0.4253 
     50 CA         28.0563   33.0075    3.2297 C.3       8 UNK         0.0242 
     51 CB         28.4123   34.5025    3.3726 C.3       8 UNK        -0.2000 
     52 C          28.3828   32.2053    4.5092 C.2       8 UNK         0.4948 
     53 O          28.4933   32.7993    5.5836 O.2       8 UNK        -0.5275 
     54 N          28.5344   30.8787    4.3752 N.am      9 UNK        -0.4246 
     55 CA         28.9057   29.9272    5.4311 C.3       9 UNK         0.0261 
     56 CB         27.7951   29.8209    6.4985 C.3       9 UNK        -0.1959 
     57 C          30.3087   30.1721    6.0312 C.2       9 UNK         0.5033 
     58 O          30.5230   29.8898    7.2127 O.2       9 UNK        -0.5390 
     59 N          31.2456   30.6767    5.2133 N.am      10 UNK        -0.4215 
     60 CA         32.6613   30.8476    5.5579 C.3       10 UNK         0.0240 
     61 CB         33.3372   31.6975    4.4670 C.3       10 UNK        -0.1982 
     62 C          33.4106   29.5115    5.7430 C.2       10 UNK         0.4970 
     63 O          32.8819   28.4478    5.4234 O.2       10 UNK        -0.4916 
     64 N          34.6438   29.6129    6.2521 N.am      11 UNK        -0.4279 
     65 CA         35.6157   28.5293    6.4876 C.3       11 UNK         0.1003 
     66 C          35.2524   27.4954    7.5988 C.2       11 UNK         0.5709 
     67 N          34.1167   27.6114    8.2762 N.am      11 UNK        -0.7358 
     68 O          36.0458   26.6045    7.8946 O.2       11 UNK        -0.4999 
     69 C69        36.1985   27.9198    5.1697 C.3       12 UNK        -0.0954 
     70 S70        35.3935   26.4136    4.5118 S.3       12 UNK        -0.2268 
     71 C71        34.7090   27.0002    2.9239 C.3       12 UNK         0.0203 
     72 H72        25.5896   18.9628    2.1135 H         1 UNK         0.0888 
     73 H73        26.8770   18.0300    1.3457 H         1 UNK         0.0888 
     74 H74        27.2302   19.0220    2.7612 H         1 UNK         0.0888 
     75 H75        28.2860   20.9295    2.2283 H         1 UNK         0.3017 
     76 H76        28.2270   21.9680   -0.4938 H         1 UNK         0.0873 
     77 H77        30.0545   23.4450    0.2725 H         1 UNK         0.0745 
     78 H78        30.3823   21.7565    0.5308 H         1 UNK         0.0745 
     79 H79        32.2144   21.7688    2.2001 H         1 UNK         0.0705 
     80 H80        32.2487   22.6355    3.7112 H         1 UNK         0.0705 
     81 H81        33.2106   24.8381    3.8257 H         1 UNK         0.1334 
     82 H82        34.5113   26.7916    0.2298 H         1 UNK         0.1417 
     83 H83        32.3233   23.1228    0.0054 H         1 UNK         0.1562 
     84 H84        34.0337   24.1968   -1.9192 H         1 UNK         0.0748 
     85 H85        33.9089   25.9372   -1.9236 H         1 UNK         0.0748 
     86 H86        31.1766   26.9361   -3.3361 H         1 UNK         0.0940 
     87 H87        31.8795   27.2509   -1.7759 H         1 UNK         0.0940 
     88 H88        29.1026   26.0077   -2.1592 H         1 UNK         0.0703 
     89 H89        29.0651   25.6953    0.0264 H         1 UNK         0.3081 
     90 H90        30.2303   25.7352    2.2764 H         1 UNK         0.0719 
     91 H91        30.5824   27.2510    4.2213 H         1 UNK         0.0809 
     92 H92        30.5828   28.6521    3.1409 H         1 UNK         0.0809 
     93 H93        31.8395   27.4465    3.0211 H         1 UNK         0.0809 
     94 H94        28.0835   26.0219    2.8081 H         1 UNK         0.2990 
     95 H95        26.3006   27.6096    3.9842 H         1 UNK         0.0690 
     96 H96        24.4103   28.9200    3.0528 H         1 UNK         0.0788 
     97 H97        25.3578   29.3120    1.6196 H         1 UNK         0.0788 
     98 H98        25.8466   29.9150    3.1973 H         1 UNK         0.0788 
     99 H99        25.0990   26.8515    1.4160 H         1 UNK         0.2993 
    100 H100       24.4102   23.7966    2.3049 H         1 UNK         0.0949 
    101 H101       25.1830   25.3754   -0.2204 H         1 UNK         0.0767 
    102 H102       24.0674   24.0190   -0.1664 H         1 UNK         0.0767 
    103 H103       23.6653   25.5030    0.6699 H         1 UNK         0.0767 
    104 H104       25.9830   22.3378    1.7237 H         1 UNK         0.3013 
    105 H105       27.8287   27.8472   -0.4688 H         1 UNK         0.3121 
    106 H106       26.5851   29.6494   -0.4255 H         1 UNK         0.0774 
    107 H107       25.9482   30.8707   -2.4531 H         1 UNK         0.0815 
    108 H108       27.3133   30.2206   -3.3429 H         1 UNK         0.0815 
    109 H109       26.0086   29.1557   -2.8187 H         1 UNK         0.0815 
    110 H110       29.7195   29.7971   -0.0762 H         1 UNK         0.2987 
    111 H111       30.1748   32.6971   -0.2972 H         1 UNK         0.0949 
    112 H112       31.9927   30.5109    0.8305 H         1 UNK         0.0806 
    113 H113       31.9837   31.0285   -0.8554 H         1 UNK         0.0806 
    114 H114       32.4429   32.1541    0.4139 H         1 UNK         0.0806 
    115 H115       28.0218   32.4101    1.1969 H         1 UNK         0.3010 
    116 H116       26.9752   32.9350    3.1026 H         1 UNK         0.0829 
    117 H117       28.1408   35.0633    2.4782 H         1 UNK         0.0813 
    118 H118       27.8814   34.9580    4.2095 H         1 UNK         0.0813 
    119 H119       29.4798   34.6441    3.5463 H         1 UNK         0.0813 
    120 H120       28.4394   30.4784    3.4442 H         1 UNK         0.3038 
    121 H121       28.9653   28.9533    4.9482 H         1 UNK         0.0769 
    122 H122       27.7121   30.7329    7.0902 H         1 UNK         0.0811 
    123 H123       26.8244   29.6251    6.0432 H         1 UNK         0.0811 
    124 H124       27.9969   29.0034    7.1917 H         1 UNK         0.0811 
    125 H125       30.9811   30.9432    4.2699 H         1 UNK         0.3204 
    126 H126       32.7096   31.3916    6.5034 H         1 UNK         0.0748 
    127 H127       34.3847   31.8943    4.6974 H         1 UNK         0.0771 
    128 H128       33.3041   31.2018    3.4955 H         1 UNK         0.0771 
    129 H129       32.8485   32.6666    4.3632 H         1 UNK         0.0771 
    130 H130       34.9714   30.5316    6.5132 H         1 UNK         0.2980 
    131 H131       36.4481   29.0710    6.9384 H         1 UNK         0.0545 
    132 H132       33.9062   26.9485    9.0051 H         1 UNK         0.3459 
    133 H133       33.4451   28.3189    8.0241 H         1 UNK         0.3459 
    134 H134       36.2404   28.6810    4.3893 H         1 UNK         0.0616 
    135 H135       37.2391   27.6448    5.3486 H         1 UNK         0.0616 
    136 H136       35.5367   27.3947    2.3326 H         1 UNK         0.0634 
    137 H137       34.0375   27.8380    3.1043 H         1 UNK         0.0634 
@<TRIPOS>BOND
     1    1    2 1    
     2    1   72 1    
     3    1   73 1    
     4    1   74 1    
     5    2    3 2    
     6    2    4 am   BACKBONE|DICT|INTERRES
     7    4    5 1    
     8    4   75 1    
     9    5    6 1    
    10    5   35 1    
    11    5   76 1    
    12    6    7 1    
    13    6   77 1    
    14    6   78 1    
    15    7    8 1    
    16    8    9 1    
    17    8   79 1    
    18    8   80 1    
    19    9   10 ar   
    20    9   14 ar   
    21   10   11 ar   
    22   10   81 1    
    23   11   12 ar   
    24   11   71 1    
    25   12   13 ar   
    26   12   82 1    
    27   13   14 ar   
    28   13   15 1    
    29   14   83 1    
    30   15   16 1    
    31   15   84 1    
    32   15   85 1    
    33   16   17 1    
    34   17   18 1    
    35   17   86 1    
    36   17   87 1    
    37   18   19 1    
    38   18   37 1    
    39   18   88 1    
    40   19   20 am   BACKBONE|DICT|INTERRES
    41   19   89 1    
    42   20   21 2    
    43   20   22 1    
    44   22   23 1    
    45   22   24 1    
    46   22   90 1    
    47   23   91 1    
    48   23   92 1    
    49   23   93 1    
    50   24   25 am   BACKBONE|DICT|INTERRES
    51   24   94 1    
    52   25   26 2    
    53   25   27 1    
    54   27   28 1    
    55   27   29 1    
    56   27   95 1    
    57   28   96 1    
    58   28   97 1    
    59   28   98 1    
    60   29   30 am   BACKBONE|DICT|INTERRES
    61   29   99 1    
    62   30   31 2    
    63   30   32 1    
    64   32   33 1    
    65   32   34 1    
    66   32  100 1    
    67   33  101 1    
    68   33  102 1    
    69   33  103 1    
    70   34   35 am   BACKBONE|DICT|INTERRES
    71   34  104 1    
    72   35   36 2    
    73   37   38 2    
    74   37   39 am   BACKBONE|DICT|INTERRES
    75   39   40 1    
    76   39  105 1    
    77   40   41 1    
    78   40   42 1    
    79   40  106 1    
    80   41  107 1    
    81   41  108 1    
    82   41  109 1    
    83   42   43 2    
    84   42   44 am   BACKBONE|DICT|INTERRES
    85   44   45 1    
    86   44  110 1    
    87   45   46 1    
    88   45   47 1    
    89   45  111 1    
    90   46  112 1    
    91   46  113 1    
    92   46  114 1    
    93   47   48 2    
    94   47   49 am   BACKBONE|DICT|INTERRES
    95   49   50 1    
    96   49  115 1    
    97   50   51 1    
    98   50   52 1    
    99   50  116 1    
   100   51  117 1    
   101   51  118 1    
   102   51  119 1    
   103   52   53 2    
   104   52   54 am   BACKBONE|DICT|INTERRES
   105   54   55 1    
   106   54  120 1    
   107   55   56 1    
   108   55   57 1    
   109   55  121 1    
   110   56  122 1    
   111   56  123 1    
   112   56  124 1    
   113   57   58 2    
   114   57   59 am   BACKBONE|DICT|INTERRES
   115   59   60 1    
   116   59  125 1    
   117   60   61 1    
   118   60   62 1    
   119   60  126 1    
   120   61  127 1    
   121   61  128 1    
   122   61  129 1    
   123   62   63 2    
   124   62   64 am   BACKBONE|DICT|INTERRES
   125   64   65 1    
   126   64  130 1    
   127   65   66 1    
   128   65   69 1    
   129   65  131 1    
   130   66   67 am   BACKBONE|DICT|INTERRES
   131   66   68 2    
   132   67  132 1    
   133   67  133 1    
   134   69   70 1    
   135   69  134 1    
   136   69  135 1    
   137   70   71 1    
   138   71  136 1    
   139   71  137 1    
@<TRIPOS>SUBSTRUCTURE
     1 UNK         1 GROUP             0       ****    0 ROOT    
