@<TRIPOS>MOLECULE
3R136
137   139    1
SMALL
USER_CHARGES


@<TRIPOS>ATOM
      1 CA         29.8285   21.3049    3.7456 C.3       0 UNK        -0.1979 
      2 C          29.9925   20.8624    2.2990 C.2       0 UNK         0.4864 
      3 O          30.0986   19.6646    2.0341 O.2       0 UNK        -0.5359 
      4 N          30.0184   21.8266    1.3707 N.am      1 UNK        -0.4318 
      5 CA         30.1734   21.6318   -0.0758 C.3       1 UNK         0.0824 
      6 C6         30.3183   22.9658   -0.8499 C.3       12 UNK        -0.0944 
      7 S7         31.7214   23.9774   -0.2646 S.3       12 UNK        -0.2672 
      8 C8         30.9078   25.5284    0.2351 C.3       12 UNK         0.0333 
      9 C9         30.2886   25.4275    1.6213 C.ar      12 UNK        -0.0807 
     10 C10        31.0289   25.8160    2.7399 C.ar      12 UNK        -0.0894 
     11 C11        30.4625   25.7740    4.0162 C.ar      12 UNK        -0.0804 
     12 C12        29.1535   25.3117    4.1762 C.ar      12 UNK        -0.0824 
     13 C13        28.4046   24.9070    3.0668 C.ar      12 UNK        -0.0762 
     14 C14        28.9748   24.9807    1.7903 C.ar      12 UNK        -0.0782 
     15 C15        26.9852   24.3860    3.2574 C.3       12 UNK         0.0230 
     16 S16        25.7618   25.2753    2.2425 S.3       12 UNK        -0.2608 
     17 C17        25.8281   26.9455    2.9804 C.3       12 UNK        -0.0989 
     18 CA         26.7262   27.9196    2.1765 C.3       5 UNK         0.0716 
     19 N          26.3339   27.9747    0.7605 N.am      5 UNK        -0.4135 
     20 C          27.0331   28.5338   -0.2368 C.2       4 UNK         0.5031 
     21 O          28.0551   29.1987   -0.0599 O.2       4 UNK        -0.5229 
     22 CA         26.4701   28.3241   -1.6598 C.3       4 UNK         0.0329 
     23 CB         27.4806   28.7060   -2.7631 C.3       4 UNK        -0.2001 
     24 N          25.9412   26.9660   -1.8737 N.am      4 UNK        -0.4303 
     25 C          26.6336   25.8217   -1.7779 C.2       3 UNK         0.5044 
     26 O          27.8441   25.7599   -1.5503 O.2       3 UNK        -0.5152 
     27 CA         25.8487   24.5164   -1.9529 C.3       3 UNK         0.0319 
     28 CB         25.7376   24.1217   -3.4351 C.3       3 UNK        -0.2001 
     29 N          26.5831   23.4926   -1.2205 N.am      3 UNK        -0.4354 
     30 C          26.0586   22.4703   -0.5423 C.2       2 UNK         0.4964 
     31 O          24.8736   22.1385   -0.6016 O.2       2 UNK        -0.5047 
     32 CA         27.0439   21.6908    0.3401 C.3       2 UNK         0.0288 
     33 CB         26.3250   20.8807    1.4369 C.3       2 UNK        -0.2113 
     34 N          27.8109   20.7726   -0.4996 N.am      2 UNK        -0.4145 
     35 C          29.1291   20.7059   -0.7585 C.2       1 UNK         0.5006 
     36 O          29.5508   19.8859   -1.5736 O.2       1 UNK        -0.5103 
     37 C          26.8085   29.2952    2.8772 C.2       5 UNK         0.5055 
     38 O          27.3300   29.3722    3.9900 O.2       5 UNK        -0.5220 
     39 N          26.3177   30.3579    2.2232 N.am      6 UNK        -0.4450 
     40 CA         26.4684   31.7526    2.6436 C.3       6 UNK         0.0367 
     41 CB         25.5228   32.6312    1.8085 C.3       6 UNK        -0.1929 
     42 C          27.9162   32.2756    2.5444 C.2       6 UNK         0.5070 
     43 O          28.2157   33.3099    3.1433 O.2       6 UNK        -0.5237 
     44 N          28.7931   31.5753    1.8074 N.am      7 UNK        -0.4739 
     45 CA         30.2172   31.8832    1.6406 C.3       7 UNK         0.0276 
     46 CB         30.7498   31.1135    0.4173 C.3       7 UNK        -0.1927 
     47 C          31.0456   31.5988    2.9118 C.2       7 UNK         0.5013 
     48 O          31.9778   30.7938    2.8773 O.2       7 UNK        -0.5193 
     49 N          30.7179   32.2913    4.0111 N.am      8 UNK        -0.4253 
     50 CA         31.3471   32.1715    5.3331 C.3       8 UNK         0.0242 
     51 CB         30.6473   33.1236    6.3150 C.3       8 UNK        -0.2000 
     52 C          32.8692   32.4072    5.3465 C.2       8 UNK         0.4948 
     53 O          33.5563   31.8550    6.2059 O.2       8 UNK        -0.5275 
     54 N          33.3763   33.1756    4.3719 N.am      9 UNK        -0.4246 
     55 CA         34.8038   33.3761    4.1144 C.3       9 UNK         0.0261 
     56 CB         34.9762   34.4588    3.0368 C.3       9 UNK        -0.1959 
     57 C          35.5479   32.0885    3.7077 C.2       9 UNK         0.5033 
     58 O          36.7453   31.9878    3.9787 O.2       9 UNK        -0.5390 
     59 N          34.8450   31.1305    3.0827 N.am      10 UNK        -0.4215 
     60 CA         35.3755   29.8010    2.7737 C.3       10 UNK         0.0240 
     61 CB         34.6241   29.2029    1.5719 C.3       10 UNK        -0.1982 
     62 C          35.2861   28.8638    3.9886 C.2       10 UNK         0.4970 
     63 O          36.1702   28.0241    4.1625 O.2       10 UNK        -0.4916 
     64 N          34.2299   29.0184    4.7988 N.am      11 UNK        -0.4279 
     65 CA         34.0047   28.2506    6.0326 C.3       11 UNK         0.1003 
     66 C          35.0106   28.6022    7.1612 C.2       11 UNK         0.5709 
     67 N          35.3215   29.8756    7.3694 N.am      11 UNK        -0.7358 
     68 O          35.5119   27.7146    7.8472 O.2       11 UNK        -0.4999 
     69 C69        32.5461   28.3645    6.5526 C.3       12 UNK        -0.0954 
     70 S70        31.2870   28.0682    5.2700 S.3       12 UNK        -0.2268 
     71 C71        31.2666   26.2524    5.2124 C.3       12 UNK         0.0203 
     72 H72        30.5952   20.8454    4.3688 H         1 UNK         0.0888 
     73 H73        29.9132   22.3861    3.8530 H         1 UNK         0.0888 
     74 H74        28.8531   20.9999    4.1232 H         1 UNK         0.0888 
     75 H75        29.9902   22.7915    1.6699 H         1 UNK         0.3017 
     76 H76        31.1273   21.1102   -0.1829 H         1 UNK         0.0873 
     77 H77        29.3990   23.5458   -0.8017 H         1 UNK         0.0745 
     78 H78        30.4893   22.7704   -1.9105 H         1 UNK         0.0745 
     79 H79        31.6530   26.3253    0.2255 H         1 UNK         0.0705 
     80 H80        30.1616   25.8186   -0.5034 H         1 UNK         0.0705 
     81 H81        32.0409   26.1780    2.6168 H         1 UNK         0.1334 
     82 H82        28.7169   25.2760    5.1651 H         1 UNK         0.1417 
     83 H83        28.3852   24.7130    0.9265 H         1 UNK         0.1562 
     84 H84        26.6828   24.4448    4.3042 H         1 UNK         0.0748 
     85 H85        26.9633   23.3284    2.9982 H         1 UNK         0.0748 
     86 H86        26.1759   26.8642    4.0124 H         1 UNK         0.0940 
     87 H87        24.8076   27.3290    3.0381 H         1 UNK         0.0940 
     88 H88        27.7450   27.5286    2.1967 H         1 UNK         0.0703 
     89 H89        25.5081   27.4457    0.5218 H         1 UNK         0.3081 
     90 H90        25.6196   29.0015   -1.7490 H         1 UNK         0.0719 
     91 H91        27.0572   28.5627   -3.7571 H         1 UNK         0.0809 
     92 H92        28.3949   28.1151   -2.6986 H         1 UNK         0.0809 
     93 H93        27.7688   29.7549   -2.6823 H         1 UNK         0.0809 
     94 H94        24.9520   26.9090   -2.0760 H         1 UNK         0.2990 
     95 H95        24.8529   24.6409   -1.5215 H         1 UNK         0.0690 
     96 H96        25.2014   23.1800   -3.5539 H         1 UNK         0.0788 
     97 H97        26.7198   24.0078   -3.8959 H         1 UNK         0.0788 
     98 H98        25.1948   24.8784   -4.0028 H         1 UNK         0.0788 
     99 H99        27.5633   23.7214   -1.1217 H         1 UNK         0.2993 
    100 H100       27.6728   22.4324    0.8233 H         1 UNK         0.0949 
    101 H101       25.6839   21.5212    2.0438 H         1 UNK         0.0767 
    102 H102       25.6928   20.0988    1.0140 H         1 UNK         0.0767 
    103 H103       27.0360   20.4013    2.1090 H         1 UNK         0.0767 
    104 H104       27.2292   20.1327   -1.0215 H         1 UNK         0.3013 
    105 H105       25.9043   30.2019    1.3160 H         1 UNK         0.3121 
    106 H106       26.1694   31.8252    3.6915 H         1 UNK         0.0774 
    107 H107       25.5830   33.6749    2.1205 H         1 UNK         0.0815 
    108 H108       25.7697   32.5948    0.7466 H         1 UNK         0.0815 
    109 H109       24.4843   32.3209    1.9248 H         1 UNK         0.0815 
    110 H110       28.4670   30.7367    1.3378 H         1 UNK         0.2987 
    111 H111       30.3135   32.9501    1.4282 H         1 UNK         0.0949 
    112 H112       30.6865   30.0341    0.5637 H         1 UNK         0.0806 
    113 H113       30.1885   31.3603   -0.4840 H         1 UNK         0.0806 
    114 H114       31.7959   31.3557    0.2247 H         1 UNK         0.0806 
    115 H115       29.9070   32.9010    3.9387 H         1 UNK         0.3010 
    116 H116       31.1793   31.1481    5.6729 H         1 UNK         0.0829 
    117 H117       29.5838   32.8977    6.3964 H         1 UNK         0.0813 
    118 H118       31.0732   33.0355    7.3156 H         1 UNK         0.0813 
    119 H119       30.7473   34.1652    6.0073 H         1 UNK         0.0813 
    120 H120       32.7318   33.5977    3.7196 H         1 UNK         0.3038 
    121 H121       35.2587   33.7367    5.0395 H         1 UNK         0.0769 
    122 H122       36.0326   34.6508    2.8432 H         1 UNK         0.0811 
    123 H123       34.5296   35.4037    3.3471 H         1 UNK         0.0811 
    124 H124       34.5203   34.1644    2.0906 H         1 UNK         0.0811 
    125 H125       33.8488   31.2612    2.9251 H         1 UNK         0.3204 
    126 H126       36.4281   29.8933    2.4968 H         1 UNK         0.0748 
    127 H127       35.0632   28.2491    1.2768 H         1 UNK         0.0771 
    128 H128       33.5733   29.0175    1.7971 H         1 UNK         0.0771 
    129 H129       34.6698   29.8631    0.7057 H         1 UNK         0.0771 
    130 H130       33.5343   29.7148    4.5747 H         1 UNK         0.2980 
    131 H131       34.1750   27.2018    5.7829 H         1 UNK         0.0545 
    132 H132       34.8344   30.6077    6.8589 H         1 UNK         0.3459 
    133 H133       35.9760   30.1158    8.0961 H         1 UNK         0.3459 
    134 H134       32.3777   27.6676    7.3757 H         1 UNK         0.0616 
    135 H135       32.3659   29.3612    6.9591 H         1 UNK         0.0616 
    136 H136       30.8521   25.8635    6.1436 H         1 UNK         0.0634 
    137 H137       32.2859   25.8718    5.1386 H         1 UNK         0.0634 
@<TRIPOS>BOND
     1    1    2 1    
     2    1   72 1    
     3    1   73 1    
     4    1   74 1    
     5    2    3 2    
     6    2    4 am   BACKBONE|DICT|INTERRES
     7    4    5 1    
     8    4   75 1    
     9    5    6 1    
    10    5   35 1    
    11    5   76 1    
    12    6    7 1    
    13    6   77 1    
    14    6   78 1    
    15    7    8 1    
    16    8    9 1    
    17    8   79 1    
    18    8   80 1    
    19    9   10 ar   
    20    9   14 ar   
    21   10   11 ar   
    22   10   81 1    
    23   11   12 ar   
    24   11   71 1    
    25   12   13 ar   
    26   12   82 1    
    27   13   14 ar   
    28   13   15 1    
    29   14   83 1    
    30   15   16 1    
    31   15   84 1    
    32   15   85 1    
    33   16   17 1    
    34   17   18 1    
    35   17   86 1    
    36   17   87 1    
    37   18   19 1    
    38   18   37 1    
    39   18   88 1    
    40   19   20 am   BACKBONE|DICT|INTERRES
    41   19   89 1    
    42   20   21 2    
    43   20   22 1    
    44   22   23 1    
    45   22   24 1    
    46   22   90 1    
    47   23   91 1    
    48   23   92 1    
    49   23   93 1    
    50   24   25 am   BACKBONE|DICT|INTERRES
    51   24   94 1    
    52   25   26 2    
    53   25   27 1    
    54   27   28 1    
    55   27   29 1    
    56   27   95 1    
    57   28   96 1    
    58   28   97 1    
    59   28   98 1    
    60   29   30 am   BACKBONE|DICT|INTERRES
    61   29   99 1    
    62   30   31 2    
    63   30   32 1    
    64   32   33 1    
    65   32   34 1    
    66   32  100 1    
    67   33  101 1    
    68   33  102 1    
    69   33  103 1    
    70   34   35 am   BACKBONE|DICT|INTERRES
    71   34  104 1    
    72   35   36 2    
    73   37   38 2    
    74   37   39 am   BACKBONE|DICT|INTERRES
    75   39   40 1    
    76   39  105 1    
    77   40   41 1    
    78   40   42 1    
    79   40  106 1    
    80   41  107 1    
    81   41  108 1    
    82   41  109 1    
    83   42   43 2    
    84   42   44 am   BACKBONE|DICT|INTERRES
    85   44   45 1    
    86   44  110 1    
    87   45   46 1    
    88   45   47 1    
    89   45  111 1    
    90   46  112 1    
    91   46  113 1    
    92   46  114 1    
    93   47   48 2    
    94   47   49 am   BACKBONE|DICT|INTERRES
    95   49   50 1    
    96   49  115 1    
    97   50   51 1    
    98   50   52 1    
    99   50  116 1    
   100   51  117 1    
   101   51  118 1    
   102   51  119 1    
   103   52   53 2    
   104   52   54 am   BACKBONE|DICT|INTERRES
   105   54   55 1    
   106   54  120 1    
   107   55   56 1    
   108   55   57 1    
   109   55  121 1    
   110   56  122 1    
   111   56  123 1    
   112   56  124 1    
   113   57   58 2    
   114   57   59 am   BACKBONE|DICT|INTERRES
   115   59   60 1    
   116   59  125 1    
   117   60   61 1    
   118   60   62 1    
   119   60  126 1    
   120   61  127 1    
   121   61  128 1    
   122   61  129 1    
   123   62   63 2    
   124   62   64 am   BACKBONE|DICT|INTERRES
   125   64   65 1    
   126   64  130 1    
   127   65   66 1    
   128   65   69 1    
   129   65  131 1    
   130   66   67 am   BACKBONE|DICT|INTERRES
   131   66   68 2    
   132   67  132 1    
   133   67  133 1    
   134   69   70 1    
   135   69  134 1    
   136   69  135 1    
   137   70   71 1    
   138   71  136 1    
   139   71  137 1    
@<TRIPOS>SUBSTRUCTURE
     1 UNK         1 GROUP             0       ****    0 ROOT    
