@<TRIPOS>MOLECULE
3R136
137   139    1
SMALL
USER_CHARGES


@<TRIPOS>ATOM
      1 CA         28.0919   21.2693    1.0890 C.3       0 UNK        -0.1979 
      2 C          29.2380   21.8499    0.2742 C.2       0 UNK         0.4864 
      3 O          29.3926   21.5065   -0.8982 O.2       0 UNK        -0.5359 
      4 N          30.0371   22.7357    0.8843 N.am      1 UNK        -0.4318 
      5 CA         31.1540   23.4442    0.2432 C.3       1 UNK         0.0824 
      6 C6         32.1234   24.0334    1.2961 C.3       12 UNK        -0.0944 
      7 S7         33.1126   22.7687    2.1743 S.3       12 UNK        -0.2672 
      8 C8         31.9988   22.0795    3.4548 C.3       12 UNK         0.0333 
      9 C9         31.1773   23.1183    4.2123 C.ar      12 UNK        -0.0807 
     10 C10        31.7650   24.2971    4.6810 C.ar      12 UNK        -0.0894 
     11 C11        30.9966   25.2867    5.3082 C.ar      12 UNK        -0.0804 
     12 C12        29.6342   25.0457    5.5202 C.ar      12 UNK        -0.0824 
     13 C13        29.0422   23.8481    5.1054 C.ar      12 UNK        -0.0762 
     14 C14        29.8186   22.8920    4.4468 C.ar      12 UNK        -0.0782 
     15 C15        27.5720   23.5663    5.3863 C.3       12 UNK         0.0230 
     16 S16        26.5202   23.8640    3.9296 S.3       12 UNK        -0.2608 
     17 C17        26.3319   25.6781    3.9812 C.3       12 UNK        -0.0989 
     18 CA         26.3263   26.3098    2.5628 C.3       5 UNK         0.0716 
     19 N          25.2351   25.8267    1.7096 N.am      5 UNK        -0.4135 
     20 C          23.9203   26.0401    1.8781 C.2       4 UNK         0.5031 
     21 O          23.4432   26.6206    2.8549 O.2       4 UNK        -0.5229 
     22 CA         22.9787   25.5438    0.7552 C.3       4 UNK         0.0329 
     23 CB         21.7122   26.4174    0.6264 C.3       4 UNK        -0.2001 
     24 N          23.6323   25.3956   -0.5550 N.am      4 UNK        -0.4303 
     25 C          24.2853   26.3465   -1.2393 C.2       3 UNK         0.5044 
     26 O          24.3967   27.5163   -0.8691 O.2       3 UNK        -0.5152 
     27 CA         25.0281   25.8877   -2.5047 C.3       3 UNK         0.0319 
     28 CB         24.5243   26.6476   -3.7425 C.3       3 UNK        -0.2001 
     29 N          26.4757   26.0825   -2.3684 N.am      3 UNK        -0.4354 
     30 C          27.2352   25.5556   -1.3979 C.2       2 UNK         0.4964 
     31 O          26.8053   24.8054   -0.5143 O.2       2 UNK        -0.5047 
     32 CA         28.7132   25.9593   -1.3876 C.3       2 UNK         0.0288 
     33 CB         28.8951   27.3824   -0.8301 C.3       2 UNK        -0.2113 
     34 N          29.4222   25.0094   -0.5397 N.am      2 UNK        -0.4145 
     35 C          30.6665   24.5529   -0.7188 C.2       1 UNK         0.5006 
     36 O          31.4220   24.9639   -1.6013 O.2       1 UNK        -0.5103 
     37 C          26.4242   27.8545    2.5944 C.2       5 UNK         0.5055 
     38 O          26.9384   28.4075    3.5692 O.2       5 UNK        -0.5220 
     39 N          25.9803   28.5410    1.5272 N.am      6 UNK        -0.4450 
     40 CA         26.0564   29.9998    1.3710 C.3       6 UNK         0.0367 
     41 CB         24.9862   30.4563    0.3626 C.3       6 UNK        -0.1929 
     42 C          27.4738   30.4764    0.9854 C.2       6 UNK         0.5070 
     43 O          27.6471   31.1715   -0.0174 O.2       6 UNK        -0.5237 
     44 N          28.4661   30.0732    1.7834 N.am      7 UNK        -0.4739 
     45 CA         29.8732   30.4436    1.6560 C.3       7 UNK         0.0276 
     46 CB         30.7256   29.2417    2.0965 C.3       7 UNK        -0.1927 
     47 C          30.1928   31.6847    2.5086 C.2       7 UNK         0.5013 
     48 O          29.3568   32.1296    3.3003 O.2       7 UNK        -0.5193 
     49 N          31.4134   32.2048    2.3485 N.am      8 UNK        -0.4253 
     50 CA         31.9729   33.3111    3.1228 C.3       8 UNK         0.0242 
     51 CB         31.9260   34.5959    2.2775 C.3       8 UNK        -0.2000 
     52 C          33.4148   32.9631    3.5127 C.2       8 UNK         0.4948 
     53 O          34.0202   32.0886    2.8856 O.2       8 UNK        -0.5275 
     54 N          33.9399   33.6620    4.5295 N.am      9 UNK        -0.4246 
     55 CA         35.2786   33.4896    5.1107 C.3       9 UNK         0.0261 
     56 CB         36.3657   33.9660    4.1186 C.3       9 UNK        -0.1959 
     57 C          35.4849   32.0544    5.6389 C.2       9 UNK         0.5033 
     58 O          34.5819   31.5187    6.2865 O.2       9 UNK        -0.5390 
     59 N          36.6361   31.4370    5.3430 N.am      10 UNK        -0.4215 
     60 CA         36.9695   30.0492    5.6825 C.3       10 UNK         0.0240 
     61 CB         38.5028   29.9038    5.7312 C.3       10 UNK        -0.1982 
     62 C          36.3039   29.0416    4.7197 C.2       10 UNK         0.4970 
     63 O          36.9909   28.1978    4.1409 O.2       10 UNK        -0.4916 
     64 N          34.9804   29.1639    4.5633 N.am      11 UNK        -0.4279 
     65 CA         34.1161   28.3657    3.6804 C.3       11 UNK         0.1003 
     66 C          34.5030   28.4687    2.1732 C.2       11 UNK         0.5709 
     67 N          34.7737   29.6637    1.6648 N.am      11 UNK        -0.7358 
     68 O          34.5483   27.4747    1.4517 O.2       11 UNK        -0.4999 
     69 C69        33.9275   26.8981    4.1578 C.3       12 UNK        -0.0954 
     70 S70        33.3895   26.7441    5.8981 S.3       12 UNK        -0.2268 
     71 C71        31.5711   26.6399    5.7415 C.3       12 UNK         0.0203 
     72 H72        27.9996   21.7464    2.0640 H         1 UNK         0.0888 
     73 H73        27.1496   21.4093    0.5596 H         1 UNK         0.0888 
     74 H74        28.2425   20.2012    1.2432 H         1 UNK         0.0888 
     75 H75        29.8718   22.9758    1.8512 H         1 UNK         0.3017 
     76 H76        31.7072   22.7265   -0.3668 H         1 UNK         0.0873 
     77 H77        31.5909   24.6710    2.0021 H         1 UNK         0.0745 
     78 H78        32.8506   24.6899    0.8127 H         1 UNK         0.0745 
     79 H79        31.3463   21.3466    2.9782 H         1 UNK         0.0705 
     80 H80        32.6017   21.5230    4.1733 H         1 UNK         0.0705 
     81 H81        32.8216   24.4406    4.5161 H         1 UNK         0.1334 
     82 H82        29.0327   25.7943    6.0177 H         1 UNK         0.1417 
     83 H83        29.3599   21.9670    4.1243 H         1 UNK         0.1562 
     84 H84        27.2150   24.1635    6.2269 H         1 UNK         0.0748 
     85 H85        27.4574   22.5246    5.6899 H         1 UNK         0.0748 
     86 H86        27.1488   26.0895    4.5742 H         1 UNK         0.0940 
     87 H87        25.4173   25.9238    4.5229 H         1 UNK         0.0940 
     88 H88        27.2438   25.9886    2.0673 H         1 UNK         0.0703 
     89 H89        25.5406   25.3324    0.8760 H         1 UNK         0.3081 
     90 H90        22.6621   24.5431    1.0528 H         1 UNK         0.0719 
     91 H91        21.9592   27.4544    0.3958 H         1 UNK         0.0809 
     92 H92        21.0523   26.0472   -0.1580 H         1 UNK         0.0809 
     93 H93        21.1389   26.4188    1.5543 H         1 UNK         0.0809 
     94 H94        23.6418   24.4558   -0.9281 H         1 UNK         0.2990 
     95 H95        24.8484   24.8218   -2.6601 H         1 UNK         0.0690 
     96 H96        25.0084   26.2923   -4.6524 H         1 UNK         0.0788 
     97 H97        24.7073   27.7201   -3.6605 H         1 UNK         0.0788 
     98 H98        23.4500   26.5102   -3.8733 H         1 UNK         0.0788 
     99 H99        26.9044   26.7136   -3.0300 H         1 UNK         0.2993 
    100 H100       29.0950   25.9040   -2.4096 H         1 UNK         0.0949 
    101 H101       28.3556   28.1175   -1.4287 H         1 UNK         0.0767 
    102 H102       28.5278   27.4629    0.1931 H         1 UNK         0.0767 
    103 H103       29.9453   27.6748   -0.8317 H         1 UNK         0.0767 
    104 H104       28.8318   24.5561    0.1459 H         1 UNK         0.3013 
    105 H105       25.5565   28.0368    0.7542 H         1 UNK         0.3121 
    106 H106       25.8169   30.4625    2.3309 H         1 UNK         0.0774 
    107 H107       23.9924   30.1171    0.6555 H         1 UNK         0.0815 
    108 H108       24.9513   31.5444    0.2955 H         1 UNK         0.0815 
    109 H109       25.1882   30.0748   -0.6390 H         1 UNK         0.0815 
    110 H110       28.2054   29.5490    2.6136 H         1 UNK         0.2987 
    111 H111       30.0986   30.6732    0.6119 H         1 UNK         0.0949 
    112 H112       31.7778   29.4228    1.8847 H         1 UNK         0.0806 
    113 H113       30.6272   29.0449    3.1649 H         1 UNK         0.0806 
    114 H114       30.4478   28.3327    1.5639 H         1 UNK         0.0806 
    115 H115       32.0807   31.7422    1.7446 H         1 UNK         0.3010 
    116 H116       31.4010   33.4576    4.0419 H         1 UNK         0.0829 
    117 H117       30.9027   34.8465    1.9972 H         1 UNK         0.0813 
    118 H118       32.3273   35.4470    2.8291 H         1 UNK         0.0813 
    119 H119       32.5089   34.4961    1.3609 H         1 UNK         0.0813 
    120 H120       33.3509   34.3379    4.9961 H         1 UNK         0.3038 
    121 H121       35.3209   34.1405    5.9853 H         1 UNK         0.0769 
    122 H122       36.4251   33.3292    3.2348 H         1 UNK         0.0811 
    123 H123       37.3512   33.9868    4.5856 H         1 UNK         0.0811 
    124 H124       36.1611   34.9803    3.7756 H         1 UNK         0.0811 
    125 H125       37.3045   31.9314    4.7697 H         1 UNK         0.3204 
    126 H126       36.5870   29.8312    6.6821 H         1 UNK         0.0748 
    127 H127       38.9441   30.5935    6.4510 H         1 UNK         0.0771 
    128 H128       38.7911   28.8963    6.0345 H         1 UNK         0.0771 
    129 H129       38.9584   30.0954    4.7588 H         1 UNK         0.0771 
    130 H130       34.5220   29.9060    5.0813 H         1 UNK         0.2980 
    131 H131       33.1371   28.8381    3.7502 H         1 UNK         0.0545 
    132 H132       35.0302   29.7354    0.6940 H         1 UNK         0.3459 
    133 H133       34.6646   30.5094    2.2211 H         1 UNK         0.3459 
    134 H134       33.1996   26.4014    3.5152 H         1 UNK         0.0616 
    135 H135       34.8592   26.3411    4.0465 H         1 UNK         0.0616 
    136 H136       31.1499   26.9037    6.7127 H         1 UNK         0.0634 
    137 H137       31.2327   27.4064    5.0435 H         1 UNK         0.0634 
@<TRIPOS>BOND
     1    1    2 1    
     2    1   72 1    
     3    1   73 1    
     4    1   74 1    
     5    2    3 2    
     6    2    4 am   BACKBONE|DICT|INTERRES
     7    4    5 1    
     8    4   75 1    
     9    5    6 1    
    10    5   35 1    
    11    5   76 1    
    12    6    7 1    
    13    6   77 1    
    14    6   78 1    
    15    7    8 1    
    16    8    9 1    
    17    8   79 1    
    18    8   80 1    
    19    9   10 ar   
    20    9   14 ar   
    21   10   11 ar   
    22   10   81 1    
    23   11   12 ar   
    24   11   71 1    
    25   12   13 ar   
    26   12   82 1    
    27   13   14 ar   
    28   13   15 1    
    29   14   83 1    
    30   15   16 1    
    31   15   84 1    
    32   15   85 1    
    33   16   17 1    
    34   17   18 1    
    35   17   86 1    
    36   17   87 1    
    37   18   19 1    
    38   18   37 1    
    39   18   88 1    
    40   19   20 am   BACKBONE|DICT|INTERRES
    41   19   89 1    
    42   20   21 2    
    43   20   22 1    
    44   22   23 1    
    45   22   24 1    
    46   22   90 1    
    47   23   91 1    
    48   23   92 1    
    49   23   93 1    
    50   24   25 am   BACKBONE|DICT|INTERRES
    51   24   94 1    
    52   25   26 2    
    53   25   27 1    
    54   27   28 1    
    55   27   29 1    
    56   27   95 1    
    57   28   96 1    
    58   28   97 1    
    59   28   98 1    
    60   29   30 am   BACKBONE|DICT|INTERRES
    61   29   99 1    
    62   30   31 2    
    63   30   32 1    
    64   32   33 1    
    65   32   34 1    
    66   32  100 1    
    67   33  101 1    
    68   33  102 1    
    69   33  103 1    
    70   34   35 am   BACKBONE|DICT|INTERRES
    71   34  104 1    
    72   35   36 2    
    73   37   38 2    
    74   37   39 am   BACKBONE|DICT|INTERRES
    75   39   40 1    
    76   39  105 1    
    77   40   41 1    
    78   40   42 1    
    79   40  106 1    
    80   41  107 1    
    81   41  108 1    
    82   41  109 1    
    83   42   43 2    
    84   42   44 am   BACKBONE|DICT|INTERRES
    85   44   45 1    
    86   44  110 1    
    87   45   46 1    
    88   45   47 1    
    89   45  111 1    
    90   46  112 1    
    91   46  113 1    
    92   46  114 1    
    93   47   48 2    
    94   47   49 am   BACKBONE|DICT|INTERRES
    95   49   50 1    
    96   49  115 1    
    97   50   51 1    
    98   50   52 1    
    99   50  116 1    
   100   51  117 1    
   101   51  118 1    
   102   51  119 1    
   103   52   53 2    
   104   52   54 am   BACKBONE|DICT|INTERRES
   105   54   55 1    
   106   54  120 1    
   107   55   56 1    
   108   55   57 1    
   109   55  121 1    
   110   56  122 1    
   111   56  123 1    
   112   56  124 1    
   113   57   58 2    
   114   57   59 am   BACKBONE|DICT|INTERRES
   115   59   60 1    
   116   59  125 1    
   117   60   61 1    
   118   60   62 1    
   119   60  126 1    
   120   61  127 1    
   121   61  128 1    
   122   61  129 1    
   123   62   63 2    
   124   62   64 am   BACKBONE|DICT|INTERRES
   125   64   65 1    
   126   64  130 1    
   127   65   66 1    
   128   65   69 1    
   129   65  131 1    
   130   66   67 am   BACKBONE|DICT|INTERRES
   131   66   68 2    
   132   67  132 1    
   133   67  133 1    
   134   69   70 1    
   135   69  134 1    
   136   69  135 1    
   137   70   71 1    
   138   71  136 1    
   139   71  137 1    
@<TRIPOS>SUBSTRUCTURE
     1 UNK         1 GROUP             0       ****    0 ROOT    
