@<TRIPOS>MOLECULE
3R136
137   139    1
SMALL
USER_CHARGES


@<TRIPOS>ATOM
      1 CA         27.7582   17.1609    0.7435 C.3       0 UNK        -0.1979 
      2 C          27.8572   18.6788    0.7548 C.2       0 UNK         0.4864 
      3 O          26.9000   19.3596    0.3805 O.2       0 UNK        -0.5359 
      4 N          29.0009   19.2222    1.1939 N.am      1 UNK        -0.4318 
      5 CA         29.2892   20.6598    1.2800 C.3       1 UNK         0.0824 
      6 C6         30.8201   20.9226    1.2198 C.3       12 UNK        -0.0944 
      7 S7         31.2547   22.5091    0.4287 S.3       12 UNK        -0.2672 
      8 C8         31.2964   23.6272    1.8621 C.3       12 UNK         0.0333 
      9 C9         32.2114   24.8146    1.6202 C.ar      12 UNK        -0.0807 
     10 C10        33.5198   24.7962    2.1125 C.ar      12 UNK        -0.0894 
     11 C11        34.3489   25.9096    1.9594 C.ar      12 UNK        -0.0804 
     12 C12        33.8645   27.0400    1.2973 C.ar      12 UNK        -0.0824 
     13 C13        32.5569   27.0755    0.8064 C.ar      12 UNK        -0.0762 
     14 C14        31.7364   25.9514    0.9580 C.ar      12 UNK        -0.0782 
     15 C15        32.0288   28.3745    0.2162 C.3       12 UNK         0.0230 
     16 S16        31.0235   28.1737   -1.2856 S.3       12 UNK        -0.2608 
     17 C17        30.4660   29.9024   -1.4778 C.3       12 UNK        -0.0989 
     18 CA         28.9794   30.1186   -1.0857 C.3       5 UNK         0.0716 
     19 N          28.6688   29.5887    0.2505 N.am      5 UNK        -0.4135 
     20 C          27.5831   28.8611    0.5343 C.2       4 UNK         0.5031 
     21 O          26.6872   28.6159   -0.2781 O.2       4 UNK        -0.5229 
     22 CA         27.4560   28.3673    1.9841 C.3       4 UNK         0.0329 
     23 CB         26.9273   29.4882    2.8944 C.3       4 UNK        -0.2001 
     24 N          26.5423   27.2279    2.0600 N.am      4 UNK        -0.4303 
     25 C          26.8669   25.9697    1.7415 C.2       3 UNK         0.5044 
     26 O          28.0143   25.5863    1.5015 O.2       3 UNK        -0.5152 
     27 CA         25.6874   24.9952    1.6078 C.3       3 UNK         0.0319 
     28 CB         25.2199   24.9261    0.1447 C.3       3 UNK        -0.2001 
     29 N          26.0389   23.6497    2.0558 N.am      3 UNK        -0.4354 
     30 C          26.0749   23.2580    3.3365 C.2       2 UNK         0.4964 
     31 O          25.8183   23.9982    4.2868 O.2       2 UNK        -0.5047 
     32 CA         26.4227   21.7842    3.6053 C.3       2 UNK         0.0288 
     33 CB         25.1400   20.9465    3.7380 C.3       2 UNK        -0.2113 
     34 N          27.2611   21.2073    2.5524 N.am      2 UNK        -0.4145 
     35 C          28.5959   21.2944    2.5111 C.2       1 UNK         0.5006 
     36 O          29.2614   21.8116    3.4098 O.2       1 UNK        -0.5103 
     37 C          28.5986   31.6108   -1.2002 C.2       5 UNK         0.5055 
     38 O          29.0053   32.2590   -2.1658 O.2       5 UNK        -0.5220 
     39 N          27.8958   32.1554   -0.1924 N.am      6 UNK        -0.4450 
     40 CA         27.5456   33.5664    0.0434 C.3       6 UNK         0.0367 
     41 CB         26.7325   34.1689   -1.1191 C.3       6 UNK        -0.1929 
     42 C          28.7601   34.4441    0.3983 C.2       6 UNK         0.5070 
     43 O          28.6909   35.2153    1.3548 O.2       6 UNK        -0.5237 
     44 N          29.8630   34.2787   -0.3414 N.am      7 UNK        -0.4739 
     45 CA         31.1690   34.8851   -0.0759 C.3       7 UNK         0.0276 
     46 CB         32.0378   34.7654   -1.3385 C.3       7 UNK        -0.1927 
     47 C          31.8937   34.2649    1.1343 C.2       7 UNK         0.5013 
     48 O          32.7822   34.9111    1.6912 O.2       7 UNK        -0.5193 
     49 N          31.5128   33.0398    1.5209 N.am      8 UNK        -0.4253 
     50 CA         32.0270   32.3273    2.6847 C.3       8 UNK         0.0242 
     51 CB         33.2659   31.5010    2.3008 C.3       8 UNK        -0.2000 
     52 C          30.9185   31.4334    3.2445 C.2       8 UNK         0.4948 
     53 O          30.2298   30.7518    2.4745 O.2       8 UNK        -0.5275 
     54 N          30.7920   31.4265    4.5771 N.am      9 UNK        -0.4246 
     55 CA         29.7988   30.6752    5.3477 C.3       9 UNK         0.0261 
     56 CB         29.5746   31.3846    6.6965 C.3       9 UNK        -0.1959 
     57 C          30.1982   29.1980    5.5184 C.2       9 UNK         0.5033 
     58 O          30.3835   28.7299    6.6436 O.2       9 UNK        -0.5390 
     59 N          30.3596   28.5023    4.3854 N.am      10 UNK        -0.4215 
     60 CA         30.6614   27.0688    4.2511 C.3       10 UNK         0.0240 
     61 CB         29.4591   26.2219    4.7229 C.3       10 UNK        -0.1982 
     62 C          31.9808   26.6223    4.9208 C.2       10 UNK         0.4970 
     63 O          32.0996   25.4570    5.3036 O.2       10 UNK        -0.4916 
     64 N          32.9277   27.5592    5.0848 N.am      11 UNK        -0.4279 
     65 CA         34.1533   27.4147    5.8915 C.3       11 UNK         0.1003 
     66 C          33.8933   27.1447    7.4095 C.2       11 UNK         0.5709 
     67 N          32.7223   27.4643    7.9510 N.am      11 UNK        -0.7358 
     68 O          34.7759   26.6762    8.1252 O.2       11 UNK        -0.4999 
     69 C69        35.1972   26.4477    5.2530 C.3       12 UNK        -0.0954 
     70 S70        36.0063   27.1808    3.7915 S.3       12 UNK        -0.2268 
     71 C71        35.7648   25.9035    2.5150 C.3       12 UNK         0.0203 
     72 H72        28.6744   16.6897    1.0988 H         1 UNK         0.0888 
     73 H73        26.9383   16.8340    1.3826 H         1 UNK         0.0888 
     74 H74        27.5646   16.8059   -0.2683 H         1 UNK         0.0888 
     75 H75        29.7367   18.6125    1.5224 H         1 UNK         0.3017 
     76 H76        28.8424   21.1279    0.3995 H         1 UNK         0.0873 
     77 H77        31.2989   20.8294    2.1964 H         1 UNK         0.0745 
     78 H78        31.2962   20.1587    0.6026 H         1 UNK         0.0745 
     79 H79        30.2849   23.9764    2.0761 H         1 UNK         0.0705 
     80 H80        31.6265   23.0874    2.7510 H         1 UNK         0.0705 
     81 H81        33.8839   23.9222    2.6352 H         1 UNK         0.1334 
     82 H82        34.5025   27.9080    1.1993 H         1 UNK         0.1417 
     83 H83        30.7137   25.9745    0.6040 H         1 UNK         0.1562 
     84 H84        32.8578   29.0400   -0.0282 H         1 UNK         0.0748 
     85 H85        31.4372   28.8745    0.9824 H         1 UNK         0.0748 
     86 H86        30.6210   30.1761   -2.5234 H         1 UNK         0.0940 
     87 H87        31.1171   30.5642   -0.9027 H         1 UNK         0.0940 
     88 H88        28.3771   29.5982   -1.8334 H         1 UNK         0.0703 
     89 H89        29.3213   29.8258    0.9928 H         1 UNK         0.3081 
     90 H90        28.4442   28.0595    2.3292 H         1 UNK         0.0719 
     91 H91        25.9217   29.7998    2.6090 H         1 UNK         0.0809 
     92 H92        26.8949   29.1670    3.9358 H         1 UNK         0.0809 
     93 H93        27.5629   30.3724    2.8475 H         1 UNK         0.0809 
     94 H94        25.5661   27.4522    2.1871 H         1 UNK         0.2990 
     95 H95        24.8561   25.3583    2.2166 H         1 UNK         0.0690 
     96 H96        24.3539   24.2731    0.0337 H         1 UNK         0.0788 
     97 H97        26.0076   24.5566   -0.5135 H         1 UNK         0.0788 
     98 H98        24.9302   25.9129   -0.2198 H         1 UNK         0.0788 
     99 H99        26.3060   22.9901    1.3411 H         1 UNK         0.2993 
    100 H100       26.9567   21.7403    4.5574 H         1 UNK         0.0949 
    101 H101       25.3685   19.9107    3.9902 H         1 UNK         0.0767 
    102 H102       24.4980   21.3378    4.5286 H         1 UNK         0.0767 
    103 H103       24.5590   20.9465    2.8147 H         1 UNK         0.0767 
    104 H104       26.7998   20.6997    1.8017 H         1 UNK         0.3013 
    105 H105       27.6296   31.5290    0.5535 H         1 UNK         0.3121 
    106 H106       26.8980   33.5631    0.9220 H         1 UNK         0.0774 
    107 H107       26.3803   35.1695   -0.8652 H         1 UNK         0.0815 
    108 H108       27.3211   34.2592   -2.0322 H         1 UNK         0.0815 
    109 H109       25.8544   33.5638   -1.3441 H         1 UNK         0.0815 
    110 H110       29.7971   33.6383   -1.1290 H         1 UNK         0.2987 
    111 H111       31.0181   35.9448    0.1417 H         1 UNK         0.0949 
    112 H112       32.2105   33.7237   -1.6125 H         1 UNK         0.0806 
    113 H113       31.5720   35.2634   -2.1891 H         1 UNK         0.0806 
    114 H114       33.0134   35.2297   -1.1876 H         1 UNK         0.0806 
    115 H115       30.7429   32.5908    1.0454 H         1 UNK         0.3010 
    116 H116       32.3086   33.0516    3.4526 H         1 UNK         0.0829 
    117 H117       34.0818   32.1445    1.9713 H         1 UNK         0.0813 
    118 H118       33.6334   30.9207    3.1481 H         1 UNK         0.0813 
    119 H119       33.0481   30.8038    1.4939 H         1 UNK         0.0813 
    120 H120       31.4317   31.9887    5.1208 H         1 UNK         0.3038 
    121 H121       28.8504   30.6935    4.8092 H         1 UNK         0.0769 
    122 H122       30.4851   31.4122    7.2966 H         1 UNK         0.0811 
    123 H123       28.8123   30.8721    7.2852 H         1 UNK         0.0811 
    124 H124       29.2343   32.4104    6.5542 H         1 UNK         0.0811 
    125 H125       30.2562   29.0254    3.5218 H         1 UNK         0.3204 
    126 H126       30.7808   26.8946    3.1858 H         1 UNK         0.0748 
    127 H127       28.5268   26.5593    4.2724 H         1 UNK         0.0771 
    128 H128       29.5856   25.1739    4.4467 H         1 UNK         0.0771 
    129 H129       29.3386   26.2625    5.8059 H         1 UNK         0.0771 
    130 H130       32.7404   28.4882    4.7422 H         1 UNK         0.2980 
    131 H131       34.6036   28.4078    5.8969 H         1 UNK         0.0545 
    132 H132       32.5775   27.2961    8.9333 H         1 UNK         0.3459 
    133 H133       31.9727   27.8666    7.3958 H         1 UNK         0.3459 
    134 H134       34.7415   25.4907    4.9970 H         1 UNK         0.0616 
    135 H135       36.0023   26.2160    5.9516 H         1 UNK         0.0616 
    136 H136       36.4622   26.0915    1.6977 H         1 UNK         0.0634 
    137 H137       36.0275   24.9268    2.9243 H         1 UNK         0.0634 
@<TRIPOS>BOND
     1    1    2 1    
     2    1   72 1    
     3    1   73 1    
     4    1   74 1    
     5    2    3 2    
     6    2    4 am   BACKBONE|DICT|INTERRES
     7    4    5 1    
     8    4   75 1    
     9    5    6 1    
    10    5   35 1    
    11    5   76 1    
    12    6    7 1    
    13    6   77 1    
    14    6   78 1    
    15    7    8 1    
    16    8    9 1    
    17    8   79 1    
    18    8   80 1    
    19    9   10 ar   
    20    9   14 ar   
    21   10   11 ar   
    22   10   81 1    
    23   11   12 ar   
    24   11   71 1    
    25   12   13 ar   
    26   12   82 1    
    27   13   14 ar   
    28   13   15 1    
    29   14   83 1    
    30   15   16 1    
    31   15   84 1    
    32   15   85 1    
    33   16   17 1    
    34   17   18 1    
    35   17   86 1    
    36   17   87 1    
    37   18   19 1    
    38   18   37 1    
    39   18   88 1    
    40   19   20 am   BACKBONE|DICT|INTERRES
    41   19   89 1    
    42   20   21 2    
    43   20   22 1    
    44   22   23 1    
    45   22   24 1    
    46   22   90 1    
    47   23   91 1    
    48   23   92 1    
    49   23   93 1    
    50   24   25 am   BACKBONE|DICT|INTERRES
    51   24   94 1    
    52   25   26 2    
    53   25   27 1    
    54   27   28 1    
    55   27   29 1    
    56   27   95 1    
    57   28   96 1    
    58   28   97 1    
    59   28   98 1    
    60   29   30 am   BACKBONE|DICT|INTERRES
    61   29   99 1    
    62   30   31 2    
    63   30   32 1    
    64   32   33 1    
    65   32   34 1    
    66   32  100 1    
    67   33  101 1    
    68   33  102 1    
    69   33  103 1    
    70   34   35 am   BACKBONE|DICT|INTERRES
    71   34  104 1    
    72   35   36 2    
    73   37   38 2    
    74   37   39 am   BACKBONE|DICT|INTERRES
    75   39   40 1    
    76   39  105 1    
    77   40   41 1    
    78   40   42 1    
    79   40  106 1    
    80   41  107 1    
    81   41  108 1    
    82   41  109 1    
    83   42   43 2    
    84   42   44 am   BACKBONE|DICT|INTERRES
    85   44   45 1    
    86   44  110 1    
    87   45   46 1    
    88   45   47 1    
    89   45  111 1    
    90   46  112 1    
    91   46  113 1    
    92   46  114 1    
    93   47   48 2    
    94   47   49 am   BACKBONE|DICT|INTERRES
    95   49   50 1    
    96   49  115 1    
    97   50   51 1    
    98   50   52 1    
    99   50  116 1    
   100   51  117 1    
   101   51  118 1    
   102   51  119 1    
   103   52   53 2    
   104   52   54 am   BACKBONE|DICT|INTERRES
   105   54   55 1    
   106   54  120 1    
   107   55   56 1    
   108   55   57 1    
   109   55  121 1    
   110   56  122 1    
   111   56  123 1    
   112   56  124 1    
   113   57   58 2    
   114   57   59 am   BACKBONE|DICT|INTERRES
   115   59   60 1    
   116   59  125 1    
   117   60   61 1    
   118   60   62 1    
   119   60  126 1    
   120   61  127 1    
   121   61  128 1    
   122   61  129 1    
   123   62   63 2    
   124   62   64 am   BACKBONE|DICT|INTERRES
   125   64   65 1    
   126   64  130 1    
   127   65   66 1    
   128   65   69 1    
   129   65  131 1    
   130   66   67 am   BACKBONE|DICT|INTERRES
   131   66   68 2    
   132   67  132 1    
   133   67  133 1    
   134   69   70 1    
   135   69  134 1    
   136   69  135 1    
   137   70   71 1    
   138   71  136 1    
   139   71  137 1    
@<TRIPOS>SUBSTRUCTURE
     1 UNK         1 GROUP             0       ****    0 ROOT    
