@<TRIPOS>MOLECULE
3R136
137   139    1
SMALL
USER_CHARGES


@<TRIPOS>ATOM
      1 CA         29.0773   22.4731   -1.8842 C.3       0 UNK        -0.1979 
      2 C          28.1751   21.7837   -0.8652 C.2       0 UNK         0.4864 
      3 O          27.3117   21.0025   -1.2615 O.2       0 UNK        -0.5359 
      4 N          28.3170   22.0339    0.4425 N.am      1 UNK        -0.4318 
      5 CA         29.2565   22.9506    1.0960 C.3       1 UNK         0.0824 
      6 C6         30.3844   22.1843    1.8415 C.3       12 UNK        -0.0944 
      7 S7         31.5107   21.3269    0.6851 S.3       12 UNK        -0.2672 
      8 C8         33.1061   22.1895    0.9241 C.3       12 UNK         0.0333 
      9 C9         33.0171   23.7111    0.8343 C.ar      12 UNK        -0.0807 
     10 C10        33.6789   24.4981    1.7803 C.ar      12 UNK        -0.0894 
     11 C11        33.5747   25.8924    1.7525 C.ar      12 UNK        -0.0804 
     12 C12        32.7897   26.5036    0.7689 C.ar      12 UNK        -0.0824 
     13 C13        32.1353   25.7272   -0.1939 C.ar      12 UNK        -0.0762 
     14 C14        32.2786   24.3373   -0.1737 C.ar      12 UNK        -0.0782 
     15 C15        31.2284   26.3714   -1.2292 C.3       12 UNK         0.0230 
     16 S16        29.5343   26.4350   -0.5806 S.3       12 UNK        -0.2608 
     17 C17        28.5321   26.6679   -2.0873 C.3       12 UNK        -0.0989 
     18 CA         27.1439   27.3161   -1.8138 C.3       5 UNK         0.0716 
     19 N          26.3301   26.5375   -0.8789 N.am      5 UNK        -0.4135 
     20 C          25.3605   25.6808   -1.2247 C.2       4 UNK         0.5031 
     21 O          25.0796   25.4145   -2.3946 O.2       4 UNK        -0.5229 
     22 CA         24.5557   24.9908   -0.1027 C.3       4 UNK         0.0329 
     23 CB         24.7764   23.4707   -0.1198 C.3       4 UNK        -0.2001 
     24 N          24.8570   25.4968    1.2378 N.am      4 UNK        -0.4303 
     25 C          24.3561   26.6286    1.7534 C.2       3 UNK         0.5044 
     26 O          23.5160   27.3235    1.1811 O.2       3 UNK        -0.5152 
     27 CA         24.8799   27.0758    3.1335 C.3       3 UNK         0.0319 
     28 CB         23.8444   26.7672    4.2269 C.3       3 UNK        -0.2001 
     29 N          26.1701   26.4941    3.5218 N.am      3 UNK        -0.4354 
     30 C          27.3224   26.6466    2.8551 C.2       2 UNK         0.4964 
     31 O          27.4191   27.2852    1.8076 O.2       2 UNK        -0.5047 
     32 CA         28.5750   25.9586    3.4263 C.3       2 UNK         0.0288 
     33 CB         28.3948   25.3694    4.8450 C.3       2 UNK        -0.2113 
     34 N          29.1054   24.9436    2.5094 N.am      2 UNK        -0.4145 
     35 C          28.4636   23.8547    2.0591 C.2       1 UNK         0.5006 
     36 O          27.3072   23.5565    2.3765 O.2       1 UNK        -0.5103 
     37 C          27.1760   28.7849   -1.3445 C.2       5 UNK         0.5055 
     38 O          26.1635   29.2912   -0.8550 O.2       5 UNK        -0.5220 
     39 N          28.3175   29.4595   -1.5321 N.am      6 UNK        -0.4450 
     40 CA         28.5283   30.8681   -1.1948 C.3       6 UNK         0.0367 
     41 CB         29.7688   31.3749   -1.9507 C.3       6 UNK        -0.1929 
     42 C          28.6810   31.1398    0.3129 C.2       6 UNK         0.5070 
     43 O          28.5710   32.3003    0.7095 O.2       6 UNK        -0.5237 
     44 N          28.9596   30.0940    1.1108 N.am      7 UNK        -0.4739 
     45 CA         29.2595   30.1376    2.5505 C.3       7 UNK         0.0276 
     46 CB         27.9979   30.5077    3.3590 C.3       7 UNK        -0.1927 
     47 C          30.4680   31.0462    2.8581 C.2       7 UNK         0.5013 
     48 O          30.3783   31.9498    3.6914 O.2       7 UNK        -0.5193 
     49 N          31.5614   30.8192    2.1183 N.am      8 UNK        -0.4253 
     50 CA         32.7807   31.6235    2.1597 C.3       8 UNK         0.0242 
     51 CB         33.6537   31.2683    0.9447 C.3       8 UNK        -0.2000 
     52 C          33.5708   31.4231    3.4622 C.2       8 UNK         0.4948 
     53 O          33.8284   30.2796    3.8460 O.2       8 UNK        -0.5275 
     54 N          33.9883   32.5412    4.0743 N.am      9 UNK        -0.4246 
     55 CA         34.8527   32.6343    5.2568 C.3       9 UNK         0.0261 
     56 CB         36.3146   32.3195    4.8612 C.3       9 UNK        -0.1959 
     57 C          34.3219   31.7966    6.4379 C.2       9 UNK         0.5033 
     58 O          33.2042   32.0421    6.8965 O.2       9 UNK        -0.5390 
     59 N          35.1111   30.8135    6.8923 N.am      10 UNK        -0.4215 
     60 CA         34.7765   29.8800    7.9710 C.3       10 UNK         0.0240 
     61 CB         36.0146   29.0290    8.2989 C.3       10 UNK        -0.1982 
     62 C          33.5658   28.9742    7.6760 C.2       10 UNK         0.4970 
     63 O          32.9657   28.4654    8.6238 O.2       10 UNK        -0.4916 
     64 N          33.2218   28.7925    6.3939 N.am      11 UNK        -0.4279 
     65 CA         32.0330   28.0495    5.9517 C.3       11 UNK         0.1003 
     66 C          30.7234   28.8895    6.0009 C.2       11 UNK         0.5709 
     67 N          30.7515   30.1613    6.3838 N.am      11 UNK        -0.7358 
     68 O          29.6545   28.3739    5.6889 O.2       11 UNK        -0.4999 
     69 C69        32.2375   27.3863    4.5626 C.3       12 UNK        -0.0954 
     70 S70        33.7609   26.3876    4.4777 S.3       12 UNK        -0.2268 
     71 C71        34.3281   26.7256    2.7809 C.3       12 UNK         0.0203 
     72 H72        28.7785   22.2089   -2.8984 H         1 UNK         0.0888 
     73 H73        29.0125   23.5556   -1.7957 H         1 UNK         0.0888 
     74 H74        30.1135   22.1660   -1.7552 H         1 UNK         0.0888 
     75 H75        27.6518   21.6235    1.0838 H         1 UNK         0.3017 
     76 H76        29.7042   23.6188    0.3643 H         1 UNK         0.0873 
     77 H77        30.9709   22.8552    2.4717 H         1 UNK         0.0745 
     78 H78        29.9580   21.4412    2.5179 H         1 UNK         0.0745 
     79 H79        33.8127   21.8345    0.1731 H         1 UNK         0.0705 
     80 H80        33.5090   21.8885    1.8925 H         1 UNK         0.0705 
     81 H81        34.2722   24.0270    2.5525 H         1 UNK         0.1334 
     82 H82        32.6855   27.5796    0.7533 H         1 UNK         0.1417 
     83 H83        31.7767   23.7377   -0.9198 H         1 UNK         0.1562 
     84 H84        31.2494   25.7969   -2.1569 H         1 UNK         0.0748 
     85 H85        31.5704   27.3784   -1.4728 H         1 UNK         0.0748 
     86 H86        28.3795   25.6894   -2.5436 H         1 UNK         0.0940 
     87 H87        29.0952   27.2373   -2.8286 H         1 UNK         0.0940 
     88 H88        26.6254   27.3619   -2.7737 H         1 UNK         0.0703 
     89 H89        26.4989   26.7432    0.1017 H         1 UNK         0.3081 
     90 H90        23.5001   25.1736   -0.3147 H         1 UNK         0.0719 
     91 H91        24.5483   23.0472   -1.0989 H         1 UNK         0.0809 
     92 H92        25.8089   23.2178    0.1116 H         1 UNK         0.0809 
     93 H93        24.1381   22.9681    0.6068 H         1 UNK         0.0809 
     94 H94        25.5452   24.9828    1.7748 H         1 UNK         0.2990 
     95 H95        25.0144   28.1585    3.0856 H         1 UNK         0.0690 
     96 H96        24.1532   27.1690    5.1922 H         1 UNK         0.0788 
     97 H97        23.6880   25.6938    4.3423 H         1 UNK         0.0788 
     98 H98        22.8779   27.2134    3.9878 H         1 UNK         0.0788 
     99 H99        26.1795   25.9305    4.3596 H         1 UNK         0.2993 
    100 H100       29.3252   26.7455    3.4863 H         1 UNK         0.0949 
    101 H101       29.3428   24.9923    5.2291 H         1 UNK         0.0767 
    102 H102       28.0518   26.1298    5.5480 H         1 UNK         0.0767 
    103 H103       27.6808   24.5456    4.8689 H         1 UNK         0.0767 
    104 H104       30.0278   25.1363    2.1431 H         1 UNK         0.3013 
    105 H105       29.1065   28.9660   -1.9229 H         1 UNK         0.3121 
    106 H106       27.6618   31.4364   -1.5401 H         1 UNK         0.0774 
    107 H107       29.9390   32.4348   -1.7557 H         1 UNK         0.0815 
    108 H108       30.6717   30.8413   -1.6511 H         1 UNK         0.0815 
    109 H109       29.6518   31.2625   -3.0287 H         1 UNK         0.0815 
    110 H110       28.9736   29.1743    0.6897 H         1 UNK         0.2987 
    111 H111       29.5508   29.1279    2.8421 H         1 UNK         0.0949 
    112 H112       27.6680   31.5267    3.1555 H         1 UNK         0.0806 
    113 H113       27.1711   29.8355    3.1304 H         1 UNK         0.0806 
    114 H114       28.1877   30.4350    4.4302 H         1 UNK         0.0806 
    115 H115       31.5456   30.0563    1.4593 H         1 UNK         0.3010 
    116 H116       32.4899   32.6731    2.0763 H         1 UNK         0.0829 
    117 H117       33.1274   31.4528    0.0079 H         1 UNK         0.0813 
    118 H118       34.5627   31.8712    0.9284 H         1 UNK         0.0813 
    119 H119       33.9594   30.2211    0.9597 H         1 UNK         0.0813 
    120 H120       33.6843   33.4275    3.6958 H         1 UNK         0.3038 
    121 H121       34.8170   33.6736    5.5871 H         1 UNK         0.0769 
    122 H122       36.9939   32.4506    5.7048 H         1 UNK         0.0811 
    123 H123       36.6571   32.9944    4.0766 H         1 UNK         0.0811 
    124 H124       36.4317   31.3018    4.4861 H         1 UNK         0.0811 
    125 H125       36.0001   30.6739    6.4344 H         1 UNK         0.3204 
    126 H126       34.5255   30.4740    8.8524 H         1 UNK         0.0748 
    127 H127       36.8583   29.6514    8.5979 H         1 UNK         0.0771 
    128 H128       35.8115   28.3453    9.1246 H         1 UNK         0.0771 
    129 H129       36.3260   28.4248    7.4455 H         1 UNK         0.0771 
    130 H130       33.7296   29.2730    5.6587 H         1 UNK         0.2980 
    131 H131       31.8730   27.2334    6.6587 H         1 UNK         0.0545 
    132 H132       29.8940   30.6883    6.3943 H         1 UNK         0.3459 
    133 H133       31.6248   30.6222    6.6067 H         1 UNK         0.3459 
    134 H134       31.4084   26.7173    4.3363 H         1 UNK         0.0616 
    135 H135       32.2475   28.1423    3.7764 H         1 UNK         0.0616 
    136 H136       34.2471   27.7928    2.5682 H         1 UNK         0.0634 
    137 H137       35.3895   26.4830    2.7165 H         1 UNK         0.0634 
@<TRIPOS>BOND
     1    1    2 1    
     2    1   72 1    
     3    1   73 1    
     4    1   74 1    
     5    2    3 2    
     6    2    4 am   BACKBONE|DICT|INTERRES
     7    4    5 1    
     8    4   75 1    
     9    5    6 1    
    10    5   35 1    
    11    5   76 1    
    12    6    7 1    
    13    6   77 1    
    14    6   78 1    
    15    7    8 1    
    16    8    9 1    
    17    8   79 1    
    18    8   80 1    
    19    9   10 ar   
    20    9   14 ar   
    21   10   11 ar   
    22   10   81 1    
    23   11   12 ar   
    24   11   71 1    
    25   12   13 ar   
    26   12   82 1    
    27   13   14 ar   
    28   13   15 1    
    29   14   83 1    
    30   15   16 1    
    31   15   84 1    
    32   15   85 1    
    33   16   17 1    
    34   17   18 1    
    35   17   86 1    
    36   17   87 1    
    37   18   19 1    
    38   18   37 1    
    39   18   88 1    
    40   19   20 am   BACKBONE|DICT|INTERRES
    41   19   89 1    
    42   20   21 2    
    43   20   22 1    
    44   22   23 1    
    45   22   24 1    
    46   22   90 1    
    47   23   91 1    
    48   23   92 1    
    49   23   93 1    
    50   24   25 am   BACKBONE|DICT|INTERRES
    51   24   94 1    
    52   25   26 2    
    53   25   27 1    
    54   27   28 1    
    55   27   29 1    
    56   27   95 1    
    57   28   96 1    
    58   28   97 1    
    59   28   98 1    
    60   29   30 am   BACKBONE|DICT|INTERRES
    61   29   99 1    
    62   30   31 2    
    63   30   32 1    
    64   32   33 1    
    65   32   34 1    
    66   32  100 1    
    67   33  101 1    
    68   33  102 1    
    69   33  103 1    
    70   34   35 am   BACKBONE|DICT|INTERRES
    71   34  104 1    
    72   35   36 2    
    73   37   38 2    
    74   37   39 am   BACKBONE|DICT|INTERRES
    75   39   40 1    
    76   39  105 1    
    77   40   41 1    
    78   40   42 1    
    79   40  106 1    
    80   41  107 1    
    81   41  108 1    
    82   41  109 1    
    83   42   43 2    
    84   42   44 am   BACKBONE|DICT|INTERRES
    85   44   45 1    
    86   44  110 1    
    87   45   46 1    
    88   45   47 1    
    89   45  111 1    
    90   46  112 1    
    91   46  113 1    
    92   46  114 1    
    93   47   48 2    
    94   47   49 am   BACKBONE|DICT|INTERRES
    95   49   50 1    
    96   49  115 1    
    97   50   51 1    
    98   50   52 1    
    99   50  116 1    
   100   51  117 1    
   101   51  118 1    
   102   51  119 1    
   103   52   53 2    
   104   52   54 am   BACKBONE|DICT|INTERRES
   105   54   55 1    
   106   54  120 1    
   107   55   56 1    
   108   55   57 1    
   109   55  121 1    
   110   56  122 1    
   111   56  123 1    
   112   56  124 1    
   113   57   58 2    
   114   57   59 am   BACKBONE|DICT|INTERRES
   115   59   60 1    
   116   59  125 1    
   117   60   61 1    
   118   60   62 1    
   119   60  126 1    
   120   61  127 1    
   121   61  128 1    
   122   61  129 1    
   123   62   63 2    
   124   62   64 am   BACKBONE|DICT|INTERRES
   125   64   65 1    
   126   64  130 1    
   127   65   66 1    
   128   65   69 1    
   129   65  131 1    
   130   66   67 am   BACKBONE|DICT|INTERRES
   131   66   68 2    
   132   67  132 1    
   133   67  133 1    
   134   69   70 1    
   135   69  134 1    
   136   69  135 1    
   137   70   71 1    
   138   71  136 1    
   139   71  137 1    
@<TRIPOS>SUBSTRUCTURE
     1 UNK         1 GROUP             0       ****    0 ROOT    
