@<TRIPOS>MOLECULE
3R136
137   139    1
SMALL
USER_CHARGES


@<TRIPOS>ATOM
      1 CA         27.3954   29.9531   -0.5814 C.3       0 UNK        -0.1979 
      2 C          27.9884   28.6868    0.0167 C.2       0 UNK         0.4864 
      3 O          27.5150   28.2296    1.0561 O.2       0 UNK        -0.5359 
      4 N          29.0117   28.1184   -0.6322 N.am      1 UNK        -0.4318 
      5 CA         29.6432   26.8523   -0.2586 C.3       1 UNK         0.0824 
      6 C6         31.1388   26.8383   -0.6799 C.3       12 UNK        -0.0944 
      7 S7         32.0175   25.2665   -0.3725 S.3       12 UNK        -0.2672 
      8 C8         32.8110   25.5812    1.2344 C.3       12 UNK         0.0333 
      9 C9         31.8384   25.4845    2.4030 C.ar      12 UNK        -0.0807 
     10 C10        31.6707   26.5659    3.2733 C.ar      12 UNK        -0.0894 
     11 C11        30.8317   26.4637    4.3904 C.ar      12 UNK        -0.0804 
     12 C12        30.1485   25.2660    4.6175 C.ar      12 UNK        -0.0824 
     13 C13        30.2762   24.1888    3.7356 C.ar      12 UNK        -0.0762 
     14 C14        31.1333   24.2997    2.6379 C.ar      12 UNK        -0.0782 
     15 C15        29.4869   22.9069    3.9657 C.3       12 UNK         0.0230 
     16 S16        27.8943   22.9197    3.0756 S.3       12 UNK        -0.2608 
     17 C17        26.9652   24.1879    4.0034 C.3       12 UNK        -0.0989 
     18 CA         26.9521   25.5510    3.2574 C.3       5 UNK         0.0716 
     19 N          26.1765   25.5141    2.0106 N.am      5 UNK        -0.4135 
     20 C          24.8421   25.4518    1.8942 C.2       4 UNK         0.5031 
     21 O          24.0675   25.3347    2.8447 O.2       4 UNK        -0.5229 
     22 CA         24.2668   25.5365    0.4769 C.3       4 UNK         0.0329 
     23 CB         24.4639   26.9341   -0.1373 C.3       4 UNK        -0.2001 
     24 N          24.8454   24.5160   -0.3960 N.am      4 UNK        -0.4303 
     25 C          24.1674   23.8699   -1.3544 C.2       3 UNK         0.5044 
     26 O          22.9730   24.0653   -1.5896 O.2       3 UNK        -0.5152 
     27 CA         24.9370   22.8172   -2.1819 C.3       3 UNK         0.0319 
     28 CB         24.3309   22.6048   -3.5864 C.3       3 UNK        -0.2001 
     29 N          26.3823   23.0610   -2.2741 N.am      3 UNK        -0.4354 
     30 C          26.9956   24.1271   -2.8092 C.2       2 UNK         0.4964 
     31 O          26.4189   25.0839   -3.3302 O.2       2 UNK        -0.5047 
     32 CA         28.5315   24.1124   -2.7450 C.3       2 UNK         0.0288 
     33 CB         29.1356   24.0018   -4.1549 C.3       2 UNK        -0.2113 
     34 N          29.0918   25.2853   -2.0707 N.am      2 UNK        -0.4145 
     35 C          28.8025   25.6874   -0.8235 C.2       1 UNK         0.5006 
     36 O          27.9274   25.1755   -0.1222 O.2       1 UNK        -0.5103 
     37 C          26.5421   26.7416    4.1561 C.2       5 UNK         0.5055 
     38 O          26.3583   26.5791    5.3645 O.2       5 UNK        -0.5220 
     39 N          26.3796   27.9150    3.5332 N.am      6 UNK        -0.4450 
     40 CA         25.9532   29.1562    4.1693 C.3       6 UNK         0.0367 
     41 CB         25.1317   29.9889    3.1683 C.3       6 UNK        -0.1929 
     42 C          27.1659   29.9329    4.6945 C.2       6 UNK         0.5070 
     43 O          27.2894   30.1157    5.9057 O.2       6 UNK        -0.5237 
     44 N          28.0407   30.3678    3.7800 N.am      7 UNK        -0.4739 
     45 CA         29.2432   31.1471    4.0654 C.3       7 UNK         0.0276 
     46 CB         28.8756   32.5855    4.4818 C.3       7 UNK        -0.1927 
     47 C          30.1318   31.1720    2.8185 C.2       7 UNK         0.5013 
     48 O          29.6091   31.2480    1.7047 O.2       7 UNK        -0.5193 
     49 N          31.4492   31.1567    3.0340 N.am      8 UNK        -0.4253 
     50 CA         32.5098   31.2889    2.0396 C.3       8 UNK         0.0242 
     51 CB         32.5627   30.0533    1.1184 C.3       8 UNK        -0.2000 
     52 C          33.8315   31.4613    2.7991 C.2       8 UNK         0.4948 
     53 O          33.8771   31.2210    4.0082 O.2       8 UNK        -0.5275 
     54 N          34.9000   31.8286    2.0794 N.am      9 UNK        -0.4246 
     55 CA         36.2522   32.0184    2.6268 C.3       9 UNK         0.0261 
     56 CB         37.1602   32.6042    1.5327 C.3       9 UNK        -0.1959 
     57 C          36.8870   30.7470    3.2289 C.2       9 UNK         0.5033 
     58 O          37.8126   30.8582    4.0337 O.2       9 UNK        -0.5390 
     59 N          36.3820   29.5701    2.8357 N.am      10 UNK        -0.4215 
     60 CA         36.7870   28.2601    3.3471 C.3       10 UNK         0.0240 
     61 CB         36.3722   27.1859    2.3280 C.3       10 UNK        -0.1982 
     62 C          36.2188   27.9233    4.7409 C.2       10 UNK         0.4970 
     63 O          36.6665   26.9361    5.3267 O.2       10 UNK        -0.4916 
     64 N          35.2555   28.7065    5.2439 N.am      11 UNK        -0.4279 
     65 CA         34.6048   28.5115    6.5474 C.3       11 UNK         0.1003 
     66 C          34.5895   29.8185    7.3915 C.2       11 UNK         0.5709 
     67 N          33.9007   29.8271    8.5256 N.am      11 UNK        -0.7358 
     68 O          35.2284   30.8154    7.0588 O.2       11 UNK        -0.4999 
     69 C69        33.2222   27.8119    6.3983 C.3       12 UNK        -0.0954 
     70 S70        31.9894   28.8051    5.4941 S.3       12 UNK        -0.2268 
     71 C71        30.6014   27.6312    5.3496 C.3       12 UNK         0.0203 
     72 H72        27.9456   30.2856   -1.4612 H         1 UNK         0.0888 
     73 H73        26.3594   29.7796   -0.8708 H         1 UNK         0.0888 
     74 H74        27.4137   30.7584    0.1521 H         1 UNK         0.0888 
     75 H75        29.3441   28.5421   -1.4865 H         1 UNK         0.3017 
     76 H76        29.6175   26.7562    0.8296 H         1 UNK         0.0873 
     77 H77        31.2411   27.0686   -1.7416 H         1 UNK         0.0745 
     78 H78        31.6679   27.6376   -0.1625 H         1 UNK         0.0745 
     79 H79        33.6052   24.8481    1.3816 H         1 UNK         0.0705 
     80 H80        33.2963   26.5567    1.2045 H         1 UNK         0.0705 
     81 H81        32.2068   27.4838    3.0876 H         1 UNK         0.1334 
     82 H82        29.4943   25.1816    5.4741 H         1 UNK         0.1417 
     83 H83        31.2486   23.4645    1.9602 H         1 UNK         0.1562 
     84 H84        29.3130   22.7485    5.0312 H         1 UNK         0.0748 
     85 H85        30.0704   22.0499    3.6259 H         1 UNK         0.0748 
     86 H86        27.4021   24.2775    4.9984 H         1 UNK         0.0940 
     87 H87        25.9476   23.8299    4.1662 H         1 UNK         0.0940 
     88 H88        27.9734   25.7761    2.9479 H         1 UNK         0.0703 
     89 H89        26.7425   25.5834    1.1665 H         1 UNK         0.3081 
     90 H90        23.1926   25.3640    0.5754 H         1 UNK         0.0719 
     91 H91        24.1625   27.7200    0.5568 H         1 UNK         0.0809 
     92 H92        25.5053   27.1097   -0.4047 H         1 UNK         0.0809 
     93 H93        23.8681   27.0516   -1.0424 H         1 UNK         0.0809 
     94 H94        25.8273   24.3055   -0.2626 H         1 UNK         0.2990 
     95 H95        24.8269   21.8791   -1.6359 H         1 UNK         0.0690 
     96 H96        24.8779   21.8449   -4.1445 H         1 UNK         0.0788 
     97 H97        24.3394   23.5238   -4.1735 H         1 UNK         0.0788 
     98 H98        23.2945   22.2712   -3.5213 H         1 UNK         0.0788 
     99 H99        26.9617   22.3432   -1.8601 H         1 UNK         0.2993 
    100 H100       28.8509   23.2385   -2.1731 H         1 UNK         0.0949 
    101 H101       28.8973   24.8744   -4.7648 H         1 UNK         0.0767 
    102 H102       30.2208   23.9037   -4.1167 H         1 UNK         0.0767 
    103 H103       28.7505   23.1245   -4.6769 H         1 UNK         0.0767 
    104 H104       29.8153   25.7784   -2.5714 H         1 UNK         0.3013 
    105 H105       26.6575   27.9771    2.5514 H         1 UNK         0.3121 
    106 H106       25.3068   28.9260    5.0192 H         1 UNK         0.0774 
    107 H107       25.6884   30.2049    2.2558 H         1 UNK         0.0815 
    108 H108       24.2189   29.4664    2.8815 H         1 UNK         0.0815 
    109 H109       24.8349   30.9431    3.6056 H         1 UNK         0.0815 
    110 H110       27.9020   30.1453    2.8011 H         1 UNK         0.2987 
    111 H111       29.7846   30.6667    4.8818 H         1 UNK         0.0949 
    112 H112       28.3006   32.6041    5.4074 H         1 UNK         0.0806 
    113 H113       29.7713   33.1846    4.6511 H         1 UNK         0.0806 
    114 H114       28.2876   33.0872    3.7121 H         1 UNK         0.0806 
    115 H115       31.8104   31.0929    3.9805 H         1 UNK         0.3010 
    116 H116       32.3243   32.1879    1.4485 H         1 UNK         0.0829 
    117 H117       31.6196   29.9055    0.5929 H         1 UNK         0.0813 
    118 H118       33.3343   30.1596    0.3553 H         1 UNK         0.0813 
    119 H119       32.7808   29.1450    1.6779 H         1 UNK         0.0813 
    120 H120       34.7846   32.0059    1.0913 H         1 UNK         0.3038 
    121 H121       36.1781   32.7486    3.4357 H         1 UNK         0.0769 
    122 H122       37.2547   31.9287    0.6815 H         1 UNK         0.0811 
    123 H123       36.7786   33.5574    1.1665 H         1 UNK         0.0811 
    124 H124       38.1654   32.7872    1.9157 H         1 UNK         0.0811 
    125 H125       35.6308   29.5823    2.1626 H         1 UNK         0.3204 
    126 H126       37.8759   28.2463    3.4312 H         1 UNK         0.0748 
    127 H127       35.2897   27.1417    2.2163 H         1 UNK         0.0771 
    128 H128       36.8071   27.3763    1.3466 H         1 UNK         0.0771 
    129 H129       36.7073   26.1962    2.6420 H         1 UNK         0.0771 
    130 H130       34.9610   29.5398    4.7460 H         1 UNK         0.2980 
    131 H131       35.2295   27.8427    7.1415 H         1 UNK         0.0545 
    132 H132       33.3760   29.0204    8.8233 H         1 UNK         0.3459 
    133 H133       33.8960   30.6639    9.0871 H         1 UNK         0.3459 
    134 H134       32.8118   27.5522    7.3749 H         1 UNK         0.0616 
    135 H135       33.3516   26.8642    5.8733 H         1 UNK         0.0616 
    136 H136       29.7224   28.1774    5.0075 H         1 UNK         0.0634 
    137 H137       30.3632   27.2600    6.3476 H         1 UNK         0.0634 
@<TRIPOS>BOND
     1    1    2 1    
     2    1   72 1    
     3    1   73 1    
     4    1   74 1    
     5    2    3 2    
     6    2    4 am   BACKBONE|DICT|INTERRES
     7    4    5 1    
     8    4   75 1    
     9    5    6 1    
    10    5   35 1    
    11    5   76 1    
    12    6    7 1    
    13    6   77 1    
    14    6   78 1    
    15    7    8 1    
    16    8    9 1    
    17    8   79 1    
    18    8   80 1    
    19    9   10 ar   
    20    9   14 ar   
    21   10   11 ar   
    22   10   81 1    
    23   11   12 ar   
    24   11   71 1    
    25   12   13 ar   
    26   12   82 1    
    27   13   14 ar   
    28   13   15 1    
    29   14   83 1    
    30   15   16 1    
    31   15   84 1    
    32   15   85 1    
    33   16   17 1    
    34   17   18 1    
    35   17   86 1    
    36   17   87 1    
    37   18   19 1    
    38   18   37 1    
    39   18   88 1    
    40   19   20 am   BACKBONE|DICT|INTERRES
    41   19   89 1    
    42   20   21 2    
    43   20   22 1    
    44   22   23 1    
    45   22   24 1    
    46   22   90 1    
    47   23   91 1    
    48   23   92 1    
    49   23   93 1    
    50   24   25 am   BACKBONE|DICT|INTERRES
    51   24   94 1    
    52   25   26 2    
    53   25   27 1    
    54   27   28 1    
    55   27   29 1    
    56   27   95 1    
    57   28   96 1    
    58   28   97 1    
    59   28   98 1    
    60   29   30 am   BACKBONE|DICT|INTERRES
    61   29   99 1    
    62   30   31 2    
    63   30   32 1    
    64   32   33 1    
    65   32   34 1    
    66   32  100 1    
    67   33  101 1    
    68   33  102 1    
    69   33  103 1    
    70   34   35 am   BACKBONE|DICT|INTERRES
    71   34  104 1    
    72   35   36 2    
    73   37   38 2    
    74   37   39 am   BACKBONE|DICT|INTERRES
    75   39   40 1    
    76   39  105 1    
    77   40   41 1    
    78   40   42 1    
    79   40  106 1    
    80   41  107 1    
    81   41  108 1    
    82   41  109 1    
    83   42   43 2    
    84   42   44 am   BACKBONE|DICT|INTERRES
    85   44   45 1    
    86   44  110 1    
    87   45   46 1    
    88   45   47 1    
    89   45  111 1    
    90   46  112 1    
    91   46  113 1    
    92   46  114 1    
    93   47   48 2    
    94   47   49 am   BACKBONE|DICT|INTERRES
    95   49   50 1    
    96   49  115 1    
    97   50   51 1    
    98   50   52 1    
    99   50  116 1    
   100   51  117 1    
   101   51  118 1    
   102   51  119 1    
   103   52   53 2    
   104   52   54 am   BACKBONE|DICT|INTERRES
   105   54   55 1    
   106   54  120 1    
   107   55   56 1    
   108   55   57 1    
   109   55  121 1    
   110   56  122 1    
   111   56  123 1    
   112   56  124 1    
   113   57   58 2    
   114   57   59 am   BACKBONE|DICT|INTERRES
   115   59   60 1    
   116   59  125 1    
   117   60   61 1    
   118   60   62 1    
   119   60  126 1    
   120   61  127 1    
   121   61  128 1    
   122   61  129 1    
   123   62   63 2    
   124   62   64 am   BACKBONE|DICT|INTERRES
   125   64   65 1    
   126   64  130 1    
   127   65   66 1    
   128   65   69 1    
   129   65  131 1    
   130   66   67 am   BACKBONE|DICT|INTERRES
   131   66   68 2    
   132   67  132 1    
   133   67  133 1    
   134   69   70 1    
   135   69  134 1    
   136   69  135 1    
   137   70   71 1    
   138   71  136 1    
   139   71  137 1    
@<TRIPOS>SUBSTRUCTURE
     1 UNK         1 GROUP             0       ****    0 ROOT    
