@<TRIPOS>MOLECULE
3R136
137   139    1
SMALL
USER_CHARGES


@<TRIPOS>ATOM
      1 CA         35.3072   23.4890   -2.7691 C.3       0 UNK        -0.1979 
      2 C          33.8833   23.7917   -2.3253 C.2       0 UNK         0.4864 
      3 O          32.9381   23.4110   -3.0171 O.2       0 UNK        -0.5359 
      4 N          33.7310   24.4669   -1.1772 N.am      1 UNK        -0.4318 
      5 CA         32.4602   24.9049   -0.5882 C.3       1 UNK         0.0824 
      6 C6         31.5440   23.7099   -0.1816 C.3       12 UNK        -0.0944 
      7 S7         30.2984   24.1296    1.0874 S.3       12 UNK        -0.2672 
      8 C8         31.1101   23.5770    2.6163 C.3       12 UNK         0.0333 
      9 C9         30.2705   23.9435    3.8316 C.ar      12 UNK        -0.0807 
     10 C10        30.6496   24.9984    4.6687 C.ar      12 UNK        -0.0894 
     11 C11        29.8786   25.3405    5.7893 C.ar      12 UNK        -0.0804 
     12 C12        28.7170   24.6082    6.0549 C.ar      12 UNK        -0.0824 
     13 C13        28.3171   23.5636    5.2166 C.ar      12 UNK        -0.0762 
     14 C14        29.1045   23.2279    4.1134 C.ar      12 UNK        -0.0782 
     15 C15        27.0275   22.8047    5.4917 C.3       12 UNK         0.0230 
     16 S16        25.6839   23.3396    4.3826 S.3       12 UNK        -0.2608 
     17 C17        25.4438   25.0739    4.8978 C.3       12 UNK        -0.0989 
     18 CA         26.0160   26.0816    3.8664 C.3       5 UNK         0.0716 
     19 N          25.2947   26.0111    2.5938 N.am      5 UNK        -0.4135 
     20 C          25.6948   26.5512    1.4369 C.2       4 UNK         0.5031 
     21 O          26.7789   27.1165    1.2682 O.2       4 UNK        -0.5229 
     22 CA         24.6924   26.4681    0.2802 C.3       4 UNK         0.0329 
     23 CB         23.5550   27.4918    0.4561 C.3       4 UNK        -0.2001 
     24 N          25.3959   26.7270   -0.9707 N.am      4 UNK        -0.4303 
     25 C          25.0514   26.2553   -2.1741 C.2       3 UNK         0.5044 
     26 O          24.0434   25.5757   -2.3757 O.2       3 UNK        -0.5152 
     27 CA         25.9700   26.5954   -3.3665 C.3       3 UNK         0.0319 
     28 CB         25.3062   27.6509   -4.2676 C.3       3 UNK        -0.2001 
     29 N          27.3120   27.0634   -2.9988 N.am      3 UNK        -0.4354 
     30 C          28.2471   26.3188   -2.3941 C.2       2 UNK         0.4964 
     31 O          28.0763   25.1410   -2.0672 O.2       2 UNK        -0.5047 
     32 CA         29.5884   27.0101   -2.1075 C.3       2 UNK         0.0288 
     33 CB         29.4192   28.2938   -1.2693 C.3       2 UNK        -0.2113 
     34 N          30.4489   26.0741   -1.3938 N.am      2 UNK        -0.4145 
     35 C          31.7802   25.9991   -1.4519 C.2       1 UNK         0.5006 
     36 O          32.4729   26.7715   -2.1202 O.2       1 UNK        -0.5103 
     37 C          25.9558   27.5249    4.4053 C.2       5 UNK         0.5055 
     38 O          24.9770   27.8895    5.0600 O.2       5 UNK        -0.5220 
     39 N          26.9746   28.3276    4.0900 N.am      6 UNK        -0.4450 
     40 CA         27.0910   29.7382    4.4433 C.3       6 UNK         0.0367 
     41 CB         26.2456   30.5884    3.4754 C.3       6 UNK        -0.1929 
     42 C          28.5669   30.1377    4.3701 C.2       6 UNK         0.5070 
     43 O          29.3585   29.4334    3.7401 O.2       6 UNK        -0.5237 
     44 N          28.9035   31.2905    4.9663 N.am      7 UNK        -0.4739 
     45 CA         30.2615   31.8514    5.0506 C.3       7 UNK         0.0276 
     46 CB         30.2175   33.1663    5.8445 C.3       7 UNK        -0.1927 
     47 C          30.9711   32.0659    3.6993 C.2       7 UNK         0.5013 
     48 O          32.2020   32.0804    3.6650 O.2       7 UNK        -0.5193 
     49 N          30.1970   32.1594    2.6075 N.am      8 UNK        -0.4253 
     50 CA         30.6627   32.1607    1.2158 C.3       8 UNK         0.0242 
     51 CB         29.4485   32.2931    0.2826 C.3       8 UNK        -0.2000 
     52 C          31.4981   30.9233    0.8281 C.2       8 UNK         0.4948 
     53 O          32.3104   31.0152   -0.0921 O.2       8 UNK        -0.5275 
     54 N          31.3189   29.8077    1.5515 N.am      9 UNK        -0.4246 
     55 CA         32.1297   28.5934    1.4483 C.3       9 UNK         0.0261 
     56 CB         31.3645   27.4444    2.1226 C.3       9 UNK        -0.1959 
     57 C          33.5440   28.7223    2.0511 C.2       9 UNK         0.5033 
     58 O          34.3238   27.7788    1.9186 O.2       9 UNK        -0.5390 
     59 N          33.8449   29.8503    2.7171 N.am      10 UNK        -0.4215 
     60 CA         35.0919   30.1736    3.4254 C.3       10 UNK         0.0240 
     61 CB         36.3070   30.1690    2.4731 C.3       10 UNK        -0.1982 
     62 C          35.3184   29.3288    4.6958 C.2       10 UNK         0.4970 
     63 O          36.4513   29.2244    5.1678 O.2       10 UNK        -0.4916 
     64 N          34.2345   28.7657    5.2409 N.am      11 UNK        -0.4279 
     65 CA         34.1986   27.9883    6.4874 C.3       11 UNK         0.1003 
     66 C          34.2208   28.8397    7.7912 C.2       11 UNK         0.5709 
     67 N          34.1240   30.1628    7.7275 N.am      11 UNK        -0.7358 
     68 O          34.3468   28.2882    8.8820 O.2       11 UNK        -0.4999 
     69 C69        33.0315   26.9658    6.4665 C.3       12 UNK        -0.0954 
     70 S70        31.4070   27.7303    6.1157 S.3       12 UNK        -0.2268 
     71 C71        30.2480   26.4729    6.7532 C.3       12 UNK         0.0203 
     72 H72        35.5108   23.9660   -3.7270 H         1 UNK         0.0888 
     73 H73        36.0431   23.8447   -2.0491 H         1 UNK         0.0888 
     74 H74        35.4429   22.4144   -2.8881 H         1 UNK         0.0888 
     75 H75        34.5560   24.7770   -0.6832 H         1 UNK         0.3017 
     76 H76        32.7590   25.4123    0.3280 H         1 UNK         0.0873 
     77 H77        31.0293   23.3014   -1.0534 H         1 UNK         0.0745 
     78 H78        32.1523   22.8907    0.2048 H         1 UNK         0.0745 
     79 H79        32.1031   24.0246    2.6835 H         1 UNK         0.0705 
     80 H80        31.2557   22.4963    2.5811 H         1 UNK         0.0705 
     81 H81        31.5470   25.5478    4.4334 H         1 UNK         0.1334 
     82 H82        28.1137   24.8610    6.9163 H         1 UNK         0.1417 
     83 H83        28.7976   22.4228    3.4593 H         1 UNK         0.1562 
     84 H84        26.7151   22.9289    6.5298 H         1 UNK         0.0748 
     85 H85        27.1973   21.7362    5.3514 H         1 UNK         0.0748 
     86 H86        25.8970   25.2239    5.8788 H         1 UNK         0.0940 
     87 H87        24.3742   25.2383    5.0432 H         1 UNK         0.0940 
     88 H88        27.0633   25.8282    3.6846 H         1 UNK         0.0703 
     89 H89        24.3861   25.5742    2.6343 H         1 UNK         0.3081 
     90 H90        24.2795   25.4570    0.2611 H         1 UNK         0.0719 
     91 H91        23.9367   28.5131    0.4895 H         1 UNK         0.0809 
     92 H92        22.8361   27.4309   -0.3610 H         1 UNK         0.0809 
     93 H93        23.0045   27.3180    1.3816 H         1 UNK         0.0809 
     94 H94        26.2718   27.2225   -0.8597 H         1 UNK         0.2990 
     95 H95        26.0879   25.6783   -3.9480 H         1 UNK         0.0690 
     96 H96        25.8952   27.8338   -5.1667 H         1 UNK         0.0788 
     97 H97        25.1777   28.6016   -3.7478 H         1 UNK         0.0788 
     98 H98        24.3180   27.3225   -4.5936 H         1 UNK         0.0788 
     99 H99        27.5314   28.0215   -3.2320 H         1 UNK         0.2993 
    100 H100       30.0419   27.2577   -3.0698 H         1 UNK         0.0949 
    101 H101       28.7838   29.0257   -1.7676 H         1 UNK         0.0767 
    102 H102       28.9778   28.0838   -0.2942 H         1 UNK         0.0767 
    103 H103       30.3804   28.7781   -1.1030 H         1 UNK         0.0767 
    104 H104       29.9483   25.3724   -0.8580 H         1 UNK         0.3013 
    105 H105       27.7540   27.9735    3.5465 H         1 UNK         0.3121 
    106 H106       26.7447   29.8835    5.4684 H         1 UNK         0.0774 
    107 H107       26.3228   31.6510    3.7081 H         1 UNK         0.0815 
    108 H108       26.5654   30.4536    2.4413 H         1 UNK         0.0815 
    109 H109       25.1895   30.3247    3.5322 H         1 UNK         0.0815 
    110 H110       28.1794   31.8116    5.4408 H         1 UNK         0.2987 
    111 H111       30.8678   31.1348    5.6093 H         1 UNK         0.0949 
    112 H112       29.5936   33.9137    5.3532 H         1 UNK         0.0806 
    113 H113       29.8289   33.0108    6.8511 H         1 UNK         0.0806 
    114 H114       31.2160   33.5936    5.9493 H         1 UNK         0.0806 
    115 H115       29.1982   32.1292    2.7479 H         1 UNK         0.3010 
    116 H116       31.3005   33.0369    1.0846 H         1 UNK         0.0829 
    117 H117       28.8924   33.2096    0.4792 H         1 UNK         0.0813 
    118 H118       29.7606   32.3238   -0.7624 H         1 UNK         0.0813 
    119 H119       28.7627   31.4519    0.3922 H         1 UNK         0.0813 
    120 H120       30.6124   29.8056    2.2841 H         1 UNK         0.3038 
    121 H121       32.2578   28.3528    0.3919 H         1 UNK         0.0769 
    122 H122       31.9386   26.5201    2.1108 H         1 UNK         0.0811 
    123 H123       30.4154   27.2480    1.6243 H         1 UNK         0.0811 
    124 H124       31.1513   27.6646    3.1671 H         1 UNK         0.0811 
    125 H125       33.1265   30.5652    2.7939 H         1 UNK         0.3204 
    126 H126       34.9654   31.1983    3.7772 H         1 UNK         0.0748 
    127 H127       37.1884   30.5851    2.9622 H         1 UNK         0.0771 
    128 H128       36.5655   29.1615    2.1469 H         1 UNK         0.0771 
    129 H129       36.1169   30.7716    1.5849 H         1 UNK         0.0771 
    130 H130       33.3394   28.9083    4.7980 H         1 UNK         0.2980 
    131 H131       35.1193   27.4031    6.5238 H         1 UNK         0.0545 
    132 H132       34.1472   30.6994    8.5799 H         1 UNK         0.3459 
    133 H133       34.0245   30.6267    6.8401 H         1 UNK         0.3459 
    134 H134       33.2337   26.2166    5.7017 H         1 UNK         0.0616 
    135 H135       32.9824   26.4163    7.4080 H         1 UNK         0.0616 
    136 H136       30.6433   26.0447    7.6749 H         1 UNK         0.0634 
    137 H137       29.3355   27.0025    7.0310 H         1 UNK         0.0634 
@<TRIPOS>BOND
     1    1    2 1    
     2    1   72 1    
     3    1   73 1    
     4    1   74 1    
     5    2    3 2    
     6    2    4 am   BACKBONE|DICT|INTERRES
     7    4    5 1    
     8    4   75 1    
     9    5    6 1    
    10    5   35 1    
    11    5   76 1    
    12    6    7 1    
    13    6   77 1    
    14    6   78 1    
    15    7    8 1    
    16    8    9 1    
    17    8   79 1    
    18    8   80 1    
    19    9   10 ar   
    20    9   14 ar   
    21   10   11 ar   
    22   10   81 1    
    23   11   12 ar   
    24   11   71 1    
    25   12   13 ar   
    26   12   82 1    
    27   13   14 ar   
    28   13   15 1    
    29   14   83 1    
    30   15   16 1    
    31   15   84 1    
    32   15   85 1    
    33   16   17 1    
    34   17   18 1    
    35   17   86 1    
    36   17   87 1    
    37   18   19 1    
    38   18   37 1    
    39   18   88 1    
    40   19   20 am   BACKBONE|DICT|INTERRES
    41   19   89 1    
    42   20   21 2    
    43   20   22 1    
    44   22   23 1    
    45   22   24 1    
    46   22   90 1    
    47   23   91 1    
    48   23   92 1    
    49   23   93 1    
    50   24   25 am   BACKBONE|DICT|INTERRES
    51   24   94 1    
    52   25   26 2    
    53   25   27 1    
    54   27   28 1    
    55   27   29 1    
    56   27   95 1    
    57   28   96 1    
    58   28   97 1    
    59   28   98 1    
    60   29   30 am   BACKBONE|DICT|INTERRES
    61   29   99 1    
    62   30   31 2    
    63   30   32 1    
    64   32   33 1    
    65   32   34 1    
    66   32  100 1    
    67   33  101 1    
    68   33  102 1    
    69   33  103 1    
    70   34   35 am   BACKBONE|DICT|INTERRES
    71   34  104 1    
    72   35   36 2    
    73   37   38 2    
    74   37   39 am   BACKBONE|DICT|INTERRES
    75   39   40 1    
    76   39  105 1    
    77   40   41 1    
    78   40   42 1    
    79   40  106 1    
    80   41  107 1    
    81   41  108 1    
    82   41  109 1    
    83   42   43 2    
    84   42   44 am   BACKBONE|DICT|INTERRES
    85   44   45 1    
    86   44  110 1    
    87   45   46 1    
    88   45   47 1    
    89   45  111 1    
    90   46  112 1    
    91   46  113 1    
    92   46  114 1    
    93   47   48 2    
    94   47   49 am   BACKBONE|DICT|INTERRES
    95   49   50 1    
    96   49  115 1    
    97   50   51 1    
    98   50   52 1    
    99   50  116 1    
   100   51  117 1    
   101   51  118 1    
   102   51  119 1    
   103   52   53 2    
   104   52   54 am   BACKBONE|DICT|INTERRES
   105   54   55 1    
   106   54  120 1    
   107   55   56 1    
   108   55   57 1    
   109   55  121 1    
   110   56  122 1    
   111   56  123 1    
   112   56  124 1    
   113   57   58 2    
   114   57   59 am   BACKBONE|DICT|INTERRES
   115   59   60 1    
   116   59  125 1    
   117   60   61 1    
   118   60   62 1    
   119   60  126 1    
   120   61  127 1    
   121   61  128 1    
   122   61  129 1    
   123   62   63 2    
   124   62   64 am   BACKBONE|DICT|INTERRES
   125   64   65 1    
   126   64  130 1    
   127   65   66 1    
   128   65   69 1    
   129   65  131 1    
   130   66   67 am   BACKBONE|DICT|INTERRES
   131   66   68 2    
   132   67  132 1    
   133   67  133 1    
   134   69   70 1    
   135   69  134 1    
   136   69  135 1    
   137   70   71 1    
   138   71  136 1    
   139   71  137 1    
@<TRIPOS>SUBSTRUCTURE
     1 UNK         1 GROUP             0       ****    0 ROOT    
