@<TRIPOS>MOLECULE
3R136
137   139    1
SMALL
USER_CHARGES


@<TRIPOS>ATOM
      1 CA         27.5471   20.3714    3.4326 C.3       0 UNK        -0.1979 
      2 C          27.3710   20.8304    1.9933 C.2       0 UNK         0.4864 
      3 O          26.3548   20.5224    1.3675 O.2       0 UNK        -0.5359 
      4 N          28.3470   21.5781    1.4629 N.am      1 UNK        -0.4318 
      5 CA         28.3796   22.1194    0.0961 C.3       1 UNK         0.0824 
      6 C6         29.8318   22.4267   -0.3783 C.3       12 UNK        -0.0944 
      7 S7         31.0269   21.1080    0.0413 S.3       12 UNK        -0.2672 
      8 C8         32.6203   22.0039    0.0684 C.3       12 UNK         0.0333 
      9 C9         32.6812   23.2169    0.9998 C.ar      12 UNK        -0.0807 
     10 C10        33.4171   24.3361    0.5978 C.ar      12 UNK        -0.0894 
     11 C11        33.5213   25.4601    1.4209 C.ar      12 UNK        -0.0804 
     12 C12        32.8508   25.4767    2.6455 C.ar      12 UNK        -0.0824 
     13 C13        32.1025   24.3720    3.0644 C.ar      12 UNK        -0.0762 
     14 C14        32.0483   23.2323    2.2507 C.ar      12 UNK        -0.0782 
     15 C15        31.3960   24.4250    4.4172 C.3       12 UNK         0.0230 
     16 S16        29.6657   23.8354    4.4127 S.3       12 UNK        -0.2608 
     17 C17        28.9115   24.6122    2.9436 C.3       12 UNK        -0.0989 
     18 CA         28.9841   26.1548    2.8319 C.3       5 UNK         0.0716 
     19 N          28.8159   26.5651    1.4296 N.am      5 UNK        -0.4135 
     20 C          29.0184   27.7940    0.9344 C.2       4 UNK         0.5031 
     21 O          29.3239   28.7589    1.6325 O.2       4 UNK        -0.5229 
     22 CA         28.8057   28.0015   -0.5734 C.3       4 UNK         0.0329 
     23 CB         30.0937   27.6986   -1.3524 C.3       4 UNK        -0.2001 
     24 N          27.7150   27.1782   -1.1049 N.am      4 UNK        -0.4303 
     25 C          26.6973   27.6436   -1.8439 C.2       3 UNK         0.5044 
     26 O          26.5692   28.8249   -2.1694 O.2       3 UNK        -0.5152 
     27 CA         25.6332   26.6301   -2.3152 C.3       3 UNK         0.0319 
     28 CB         25.9335   26.1707   -3.7512 C.3       3 UNK        -0.2001 
     29 N          25.4954   25.4506   -1.4559 N.am      3 UNK        -0.4354 
     30 C          25.1156   25.4778   -0.1715 C.2       2 UNK         0.4964 
     31 O          24.7888   26.5044    0.4231 O.2       2 UNK        -0.5047 
     32 CA         25.1324   24.1480    0.6029 C.3       2 UNK         0.0288 
     33 CB         23.7491   23.4811    0.5391 C.3       2 UNK        -0.2113 
     34 N          26.1566   23.1571    0.2356 N.am      2 UNK        -0.4145 
     35 C          27.4630   23.3621    0.0092 C.2       1 UNK         0.5006 
     36 O          27.9596   24.4779   -0.1627 O.2       1 UNK        -0.5103 
     37 C          28.0043   26.8562    3.7991 C.2       5 UNK         0.5055 
     38 O          28.2979   26.9565    4.9901 O.2       5 UNK        -0.5220 
     39 N          26.8880   27.3877    3.2756 N.am      6 UNK        -0.4450 
     40 CA         25.9707   28.2750    3.9984 C.3       6 UNK         0.0367 
     41 CB         24.7197   28.5154    3.1390 C.3       6 UNK        -0.1929 
     42 C          26.6077   29.6190    4.4121 C.2       6 UNK         0.5070 
     43 O          26.1070   30.2568    5.3384 O.2       6 UNK        -0.5237 
     44 N          27.6983   30.0164    3.7432 N.am      7 UNK        -0.4739 
     45 CA         28.5155   31.1848    4.0546 C.3       7 UNK         0.0276 
     46 CB         28.3491   32.2293    2.9350 C.3       7 UNK        -0.1927 
     47 C          29.9737   30.7336    4.2331 C.2       7 UNK         0.5013 
     48 O          30.8748   31.2998    3.6120 O.2       7 UNK        -0.5193 
     49 N          30.1885   29.7158    5.0824 N.am      8 UNK        -0.4253 
     50 CA         31.4848   29.0746    5.3498 C.3       8 UNK         0.0242 
     51 CB         31.3213   28.0204    6.4562 C.3       8 UNK        -0.2000 
     52 C          32.6264   30.0407    5.7160 C.2       8 UNK         0.4948 
     53 O          33.7656   29.8026    5.3163 O.2       8 UNK        -0.5275 
     54 N          32.2966   31.1272    6.4288 N.am      9 UNK        -0.4246 
     55 CA         33.2210   32.2068    6.7854 C.3       9 UNK         0.0261 
     56 CB         32.5482   33.1292    7.8149 C.3       9 UNK        -0.1959 
     57 C          33.7215   33.0236    5.5780 C.2       9 UNK         0.5033 
     58 O          34.8274   33.5625    5.6436 O.2       9 UNK        -0.5390 
     59 N          32.9168   33.1044    4.5086 N.am      10 UNK        -0.4215 
     60 CA         33.2918   33.7264    3.2380 C.3       10 UNK         0.0240 
     61 CB         32.0485   34.3347    2.5673 C.3       10 UNK        -0.1982 
     62 C          33.9712   32.7097    2.3083 C.2       10 UNK         0.4970 
     63 O          34.9212   33.0768    1.6158 O.2       10 UNK        -0.4916 
     64 N          33.4823   31.4605    2.3122 N.am      11 UNK        -0.4279 
     65 CA         34.0619   30.3315    1.5707 C.3       11 UNK         0.1003 
     66 C          35.5096   29.9778    2.0169 C.2       11 UNK         0.5709 
     67 N          35.7820   29.8893    3.3128 N.am      11 UNK        -0.7358 
     68 O          36.3925   29.7940    1.1825 O.2       11 UNK        -0.4999 
     69 C69        33.1260   29.0934    1.6047 C.3       12 UNK        -0.0954 
     70 S70        33.4276   27.9565    0.2098 S.3       12 UNK        -0.2268 
     71 C71        34.3934   26.6339    0.9997 C.3       12 UNK         0.0203 
     72 H72        28.4770   20.7390    3.8666 H         1 UNK         0.0888 
     73 H73        26.7220   20.7339    4.0450 H         1 UNK         0.0888 
     74 H74        27.5563   19.2829    3.4807 H         1 UNK         0.0888 
     75 H75        29.1600   21.7864    2.0233 H         1 UNK         0.3017 
     76 H76        27.9692   21.3649   -0.5786 H         1 UNK         0.0873 
     77 H77        29.8483   22.5761   -1.4591 H         1 UNK         0.0745 
     78 H78        30.1948   23.3596    0.0522 H         1 UNK         0.0745 
     79 H79        32.8463   22.3057   -0.9556 H         1 UNK         0.0705 
     80 H80        33.4045   21.3049    0.3614 H         1 UNK         0.0705 
     81 H81        33.9296   24.3270   -0.3548 H         1 UNK         0.1334 
     82 H82        32.9275   26.3473    3.2815 H         1 UNK         0.1417 
     83 H83        31.4983   22.3645    2.5860 H         1 UNK         0.1562 
     84 H84        31.4019   25.4419    4.8102 H         1 UNK         0.0748 
     85 H85        31.9637   23.8247    5.1291 H         1 UNK         0.0748 
     86 H86        27.8769   24.2716    2.8722 H         1 UNK         0.0940 
     87 H87        29.4245   24.1737    2.0906 H         1 UNK         0.0940 
     88 H88        29.9854   26.4794    3.1187 H         1 UNK         0.0703 
     89 H89        28.5602   25.8193    0.7857 H         1 UNK         0.3081 
     90 H90        28.5737   29.0599   -0.7093 H         1 UNK         0.0719 
     91 H91        30.4519   26.6840   -1.1713 H         1 UNK         0.0809 
     92 H92        29.9469   27.8174   -2.4259 H         1 UNK         0.0809 
     93 H93        30.8851   28.3880   -1.0603 H         1 UNK         0.0809 
     94 H94        27.7373   26.1845   -0.8909 H         1 UNK         0.2990 
     95 H95        24.6721   27.1486   -2.3165 H         1 UNK         0.0690 
     96 H96        26.8736   25.6205   -3.8100 H         1 UNK         0.0788 
     97 H97        26.0128   27.0244   -4.4259 H         1 UNK         0.0788 
     98 H98        25.1417   25.5283   -4.1372 H         1 UNK         0.0788 
     99 H99        25.7614   24.5619   -1.8543 H         1 UNK         0.2993 
    100 H100       25.3271   24.4079    1.6453 H         1 UNK         0.0949 
    101 H101       23.5158   23.1368   -0.4693 H         1 UNK         0.0767 
    102 H102       23.6909   22.6225    1.2086 H         1 UNK         0.0767 
    103 H103       22.9625   24.1758    0.8382 H         1 UNK         0.0767 
    104 H104       25.9003   22.1898    0.4148 H         1 UNK         0.3013 
    105 H105       26.7068   27.2592    2.2901 H         1 UNK         0.3121 
    106 H106       25.6648   27.7661    4.9149 H         1 UNK         0.0774 
    107 H107       24.0127   29.1701    3.6504 H         1 UNK         0.0815 
    108 H108       24.9680   28.9837    2.1855 H         1 UNK         0.0815 
    109 H109       24.1982   27.5817    2.9281 H         1 UNK         0.0815 
    110 H110       28.0760   29.4220    3.0093 H         1 UNK         0.2987 
    111 H111       28.2043   31.6368    4.9987 H         1 UNK         0.0949 
    112 H112       28.6936   31.8446    1.9739 H         1 UNK         0.0806 
    113 H113       27.3066   32.5271    2.8231 H         1 UNK         0.0806 
    114 H114       28.9221   33.1314    3.1526 H         1 UNK         0.0806 
    115 H115       29.3821   29.2872    5.5166 H         1 UNK         0.3010 
    116 H116       31.7745   28.5610    4.4321 H         1 UNK         0.0829 
    117 H117       32.2648   27.5080    6.6505 H         1 UNK         0.0813 
    118 H118       30.9940   28.4681    7.3953 H         1 UNK         0.0813 
    119 H119       30.5947   27.2575    6.1810 H         1 UNK         0.0813 
    120 H120       31.3352   31.2339    6.7185 H         1 UNK         0.3038 
    121 H121       34.0963   31.7524    7.2548 H         1 UNK         0.0769 
    122 H122       33.2242   33.9284    8.1225 H         1 UNK         0.0811 
    123 H123       32.2668   32.5824    8.7151 H         1 UNK         0.0811 
    124 H124       31.6507   33.5998    7.4113 H         1 UNK         0.0811 
    125 H125       32.0498   32.5760    4.5043 H         1 UNK         0.3204 
    126 H126       33.9994   34.5371    3.4253 H         1 UNK         0.0748 
    127 H127       32.3201   34.8540    1.6473 H         1 UNK         0.0771 
    128 H128       31.3121   33.5750    2.3042 H         1 UNK         0.0771 
    129 H129       31.5625   35.0615    3.2183 H         1 UNK         0.0771 
    130 H130       32.6558   31.2629    2.8670 H         1 UNK         0.2980 
    131 H131       34.1249   30.6663    0.5332 H         1 UNK         0.0545 
    132 H132       35.0454   29.9811    4.0095 H         1 UNK         0.3459 
    133 H133       36.7203   29.6703    3.6048 H         1 UNK         0.3459 
    134 H134       33.2040   28.5655    2.5549 H         1 UNK         0.0616 
    135 H135       32.0846   29.4106    1.5266 H         1 UNK         0.0616 
    136 H136       34.9414   27.0226    1.8591 H         1 UNK         0.0634 
    137 H137       35.1526   26.2972    0.2923 H         1 UNK         0.0634 
@<TRIPOS>BOND
     1    1    2 1    
     2    1   72 1    
     3    1   73 1    
     4    1   74 1    
     5    2    3 2    
     6    2    4 am   BACKBONE|DICT|INTERRES
     7    4    5 1    
     8    4   75 1    
     9    5    6 1    
    10    5   35 1    
    11    5   76 1    
    12    6    7 1    
    13    6   77 1    
    14    6   78 1    
    15    7    8 1    
    16    8    9 1    
    17    8   79 1    
    18    8   80 1    
    19    9   10 ar   
    20    9   14 ar   
    21   10   11 ar   
    22   10   81 1    
    23   11   12 ar   
    24   11   71 1    
    25   12   13 ar   
    26   12   82 1    
    27   13   14 ar   
    28   13   15 1    
    29   14   83 1    
    30   15   16 1    
    31   15   84 1    
    32   15   85 1    
    33   16   17 1    
    34   17   18 1    
    35   17   86 1    
    36   17   87 1    
    37   18   19 1    
    38   18   37 1    
    39   18   88 1    
    40   19   20 am   BACKBONE|DICT|INTERRES
    41   19   89 1    
    42   20   21 2    
    43   20   22 1    
    44   22   23 1    
    45   22   24 1    
    46   22   90 1    
    47   23   91 1    
    48   23   92 1    
    49   23   93 1    
    50   24   25 am   BACKBONE|DICT|INTERRES
    51   24   94 1    
    52   25   26 2    
    53   25   27 1    
    54   27   28 1    
    55   27   29 1    
    56   27   95 1    
    57   28   96 1    
    58   28   97 1    
    59   28   98 1    
    60   29   30 am   BACKBONE|DICT|INTERRES
    61   29   99 1    
    62   30   31 2    
    63   30   32 1    
    64   32   33 1    
    65   32   34 1    
    66   32  100 1    
    67   33  101 1    
    68   33  102 1    
    69   33  103 1    
    70   34   35 am   BACKBONE|DICT|INTERRES
    71   34  104 1    
    72   35   36 2    
    73   37   38 2    
    74   37   39 am   BACKBONE|DICT|INTERRES
    75   39   40 1    
    76   39  105 1    
    77   40   41 1    
    78   40   42 1    
    79   40  106 1    
    80   41  107 1    
    81   41  108 1    
    82   41  109 1    
    83   42   43 2    
    84   42   44 am   BACKBONE|DICT|INTERRES
    85   44   45 1    
    86   44  110 1    
    87   45   46 1    
    88   45   47 1    
    89   45  111 1    
    90   46  112 1    
    91   46  113 1    
    92   46  114 1    
    93   47   48 2    
    94   47   49 am   BACKBONE|DICT|INTERRES
    95   49   50 1    
    96   49  115 1    
    97   50   51 1    
    98   50   52 1    
    99   50  116 1    
   100   51  117 1    
   101   51  118 1    
   102   51  119 1    
   103   52   53 2    
   104   52   54 am   BACKBONE|DICT|INTERRES
   105   54   55 1    
   106   54  120 1    
   107   55   56 1    
   108   55   57 1    
   109   55  121 1    
   110   56  122 1    
   111   56  123 1    
   112   56  124 1    
   113   57   58 2    
   114   57   59 am   BACKBONE|DICT|INTERRES
   115   59   60 1    
   116   59  125 1    
   117   60   61 1    
   118   60   62 1    
   119   60  126 1    
   120   61  127 1    
   121   61  128 1    
   122   61  129 1    
   123   62   63 2    
   124   62   64 am   BACKBONE|DICT|INTERRES
   125   64   65 1    
   126   64  130 1    
   127   65   66 1    
   128   65   69 1    
   129   65  131 1    
   130   66   67 am   BACKBONE|DICT|INTERRES
   131   66   68 2    
   132   67  132 1    
   133   67  133 1    
   134   69   70 1    
   135   69  134 1    
   136   69  135 1    
   137   70   71 1    
   138   71  136 1    
   139   71  137 1    
@<TRIPOS>SUBSTRUCTURE
     1 UNK         1 GROUP             0       ****    0 ROOT    
