@<TRIPOS>MOLECULE
3R136
137   139    1
SMALL
USER_CHARGES


@<TRIPOS>ATOM
      1 CA         26.9422   17.6221    0.2996 C.3       0 UNK        -0.1979 
      2 C          28.2912   18.3253    0.2785 C.2       0 UNK         0.4864 
      3 O          29.1472   17.9810   -0.5375 O.2       0 UNK        -0.5359 
      4 N          28.4860   19.3041    1.1721 N.am      1 UNK        -0.4318 
      5 CA         29.6962   20.1281    1.2849 C.3       1 UNK         0.0824 
      6 C6         29.7259   20.9447    2.6072 C.3       12 UNK        -0.0944 
      7 S7         28.1692   21.8341    2.9776 S.3       12 UNK        -0.2672 
      8 C8         28.5004   23.4852    2.2901 C.3       12 UNK         0.0333 
      9 C9         28.6269   24.5355    3.3785 C.ar      12 UNK        -0.0807 
     10 C10        29.8840   24.9379    3.8352 C.ar      12 UNK        -0.0894 
     11 C11        29.9999   25.9534    4.7896 C.ar      12 UNK        -0.0804 
     12 C12        28.8465   26.5728    5.2827 C.ar      12 UNK        -0.0824 
     13 C13        27.5819   26.1670    4.8411 C.ar      12 UNK        -0.0762 
     14 C14        27.4802   25.1360    3.9017 C.ar      12 UNK        -0.0782 
     15 C15        26.3228   26.8463    5.3651 C.3       12 UNK         0.0230 
     16 S16        25.2958   27.5314    4.0209 S.3       12 UNK        -0.2608 
     17 C17        26.4234   28.7649    3.2911 C.3       12 UNK        -0.0989 
     18 CA         27.1608   28.2427    2.0295 C.3       5 UNK         0.0716 
     19 N          26.2321   27.8451    0.9685 N.am      5 UNK        -0.4135 
     20 C          26.5729   27.1337   -0.1120 C.2       4 UNK         0.5031 
     21 O          27.7079   26.6984   -0.3257 O.2       4 UNK        -0.5229 
     22 CA         25.4578   26.8706   -1.1308 C.3       4 UNK         0.0329 
     23 CB         25.1782   28.1223   -1.9843 C.3       4 UNK        -0.2001 
     24 N          25.8636   25.7627   -1.9907 N.am      4 UNK        -0.4303 
     25 C          25.0433   24.9535   -2.6705 C.2       3 UNK         0.5044 
     26 O          23.8171   25.0718   -2.6733 O.2       3 UNK        -0.5152 
     27 CA         25.6866   23.8229   -3.4985 C.3       3 UNK         0.0319 
     28 CB         25.7433   24.2154   -4.9842 C.3       3 UNK        -0.2001 
     29 N          27.0324   23.4437   -3.0526 N.am      3 UNK        -0.4354 
     30 C          27.2986   22.7893   -1.9149 C.2       2 UNK         0.4964 
     31 O          26.4332   22.4196   -1.1155 O.2       2 UNK        -0.5047 
     32 CA         28.7793   22.5198   -1.6138 C.3       2 UNK         0.0288 
     33 CB         29.5277   23.8411   -1.3314 C.3       2 UNK        -0.2113 
     34 N          28.8422   21.6214   -0.4639 N.am      2 UNK        -0.4145 
     35 C          29.9254   21.0274    0.0504 C.2       1 UNK         0.5006 
     36 O          31.0635   21.1550   -0.4047 O.2       1 UNK        -0.5103 
     37 C          28.1543   29.3090    1.5331 C.2       5 UNK         0.5055 
     38 O          27.7676   30.1989    0.7712 O.2       5 UNK        -0.5220 
     39 N          29.3901   29.2381    2.0400 N.am      6 UNK        -0.4450 
     40 CA         30.4308   30.2541    1.8689 C.3       6 UNK         0.0367 
     41 CB         31.5584   29.6984    0.9819 C.3       6 UNK        -0.1929 
     42 C          30.9300   30.7205    3.2468 C.2       6 UNK         0.5070 
     43 O          32.1233   30.9909    3.4157 O.2       6 UNK        -0.5237 
     44 N          30.0044   30.7943    4.2141 N.am      7 UNK        -0.4739 
     45 CA         30.2366   31.2056    5.5980 C.3       7 UNK         0.0276 
     46 CB         28.9271   31.0701    6.3927 C.3       7 UNK        -0.1927 
     47 C          30.7895   32.6385    5.6708 C.2       7 UNK         0.5013 
     48 O          30.1055   33.5723    5.2482 O.2       7 UNK        -0.5193 
     49 N          32.0333   32.7597    6.1518 N.am      8 UNK        -0.4253 
     50 CA         32.8728   33.9629    6.2248 C.3       8 UNK         0.0242 
     51 CB         32.1980   35.0812    7.0474 C.3       8 UNK        -0.2000 
     52 C          33.3837   34.4716    4.8601 C.2       8 UNK         0.4948 
     53 O          34.0988   35.4747    4.8353 O.2       8 UNK        -0.5275 
     54 N          33.0508   33.7781    3.7626 N.am      9 UNK        -0.4246 
     55 CA         33.5429   34.0579    2.4131 C.3       9 UNK         0.0261 
     56 CB         32.3979   33.9072    1.3974 C.3       9 UNK        -0.1959 
     57 C          34.7152   33.1316    2.0602 C.2       9 UNK         0.5033 
     58 O          35.7171   33.6111    1.5270 O.2       9 UNK        -0.5390 
     59 N          34.5809   31.8355    2.3739 N.am      10 UNK        -0.4215 
     60 CA         35.6077   30.8139    2.1499 C.3       10 UNK         0.0240 
     61 CB         35.4100   30.1623    0.7691 C.3       10 UNK        -0.1982 
     62 C          35.6602   29.7461    3.2555 C.2       10 UNK         0.4970 
     63 O          36.6699   29.0443    3.3345 O.2       10 UNK        -0.4916 
     64 N          34.6154   29.6249    4.0844 N.am      11 UNK        -0.4279 
     65 CA         34.5329   28.6516    5.1820 C.3       11 UNK         0.1003 
     66 C          33.8323   29.2394    6.4363 C.2       11 UNK         0.5709 
     67 N          33.6186   28.4412    7.4733 N.am      11 UNK        -0.7358 
     68 O          33.5038   30.4223    6.4971 O.2       11 UNK        -0.4999 
     69 C69        33.9699   27.2834    4.7042 C.3       12 UNK        -0.0954 
     70 S70        32.2644   27.3504    4.0515 S.3       12 UNK        -0.2268 
     71 C71        31.3763   26.3608    5.2906 C.3       12 UNK         0.0203 
     72 H72        26.2866   18.0205    1.0738 H         1 UNK         0.0888 
     73 H73        26.4424   17.7408   -0.6614 H         1 UNK         0.0888 
     74 H74        27.0770   16.5568    0.4850 H         1 UNK         0.0888 
     75 H75        27.7483   19.5421    1.8210 H         1 UNK         0.3017 
     76 H76        30.5432   19.4388    1.3153 H         1 UNK         0.0873 
     77 H77        29.8999   20.2584    3.4373 H         1 UNK         0.0745 
     78 H78        30.5705   21.6365    2.6309 H         1 UNK         0.0745 
     79 H79        27.6878   23.7540    1.6127 H         1 UNK         0.0705 
     80 H80        29.4053   23.4735    1.6827 H         1 UNK         0.0705 
     81 H81        30.7758   24.4700    3.4405 H         1 UNK         0.1334 
     82 H82        28.9348   27.3646    6.0142 H         1 UNK         0.1417 
     83 H83        26.5053   24.8241    3.5515 H         1 UNK         0.1562 
     84 H84        26.5696   27.6439    6.0677 H         1 UNK         0.0748 
     85 H85        25.7338   26.1166    5.9223 H         1 UNK         0.0748 
     86 H86        27.1356   29.0784    4.0568 H         1 UNK         0.0940 
     87 H87        25.8365   29.6536    3.0494 H         1 UNK         0.0940 
     88 H88        27.7386   27.3583    2.3005 H         1 UNK         0.0703 
     89 H89        25.2848   28.1804    1.0604 H         1 UNK         0.3081 
     90 H90        24.5557   26.5877   -0.5837 H         1 UNK         0.0719 
     91 H91        24.8798   28.9669   -1.3621 H         1 UNK         0.0809 
     92 H92        26.0609   28.4280   -2.5476 H         1 UNK         0.0809 
     93 H93        24.3716   27.9470   -2.6963 H         1 UNK         0.0809 
     94 H94        26.8595   25.5801   -1.9865 H         1 UNK         0.2990 
     95 H95        25.0411   22.9469   -3.4042 H         1 UNK         0.0690 
     96 H96        26.3869   25.0805   -5.1494 H         1 UNK         0.0788 
     97 H97        24.7511   24.4722   -5.3583 H         1 UNK         0.0788 
     98 H98        26.1158   23.3954   -5.5984 H         1 UNK         0.0788 
     99 H99        27.7993   23.7123   -3.6530 H         1 UNK         0.2993 
    100 H100       29.2247   22.0146   -2.4732 H         1 UNK         0.0949 
    101 H101       29.0829   24.3862   -0.4993 H         1 UNK         0.0767 
    102 H102       30.5782   23.6735   -1.0955 H         1 UNK         0.0767 
    103 H103       29.5043   24.5031   -2.1976 H         1 UNK         0.0767 
    104 H104       27.9355   21.4431   -0.0468 H         1 UNK         0.3013 
    105 H105       29.6241   28.4764    2.6641 H         1 UNK         0.3121 
    106 H106       30.0217   31.1397    1.3785 H         1 UNK         0.0774 
    107 H107       32.2912   30.4731    0.7571 H         1 UNK         0.0815 
    108 H108       32.0846   28.8736    1.4627 H         1 UNK         0.0815 
    109 H109       31.1706   29.3381    0.0291 H         1 UNK         0.0815 
    110 H110       29.0472   30.6038    3.9618 H         1 UNK         0.2987 
    111 H111       30.9610   30.5134    6.0294 H         1 UNK         0.0949 
    112 H112       28.5636   30.0424    6.3898 H         1 UNK         0.0806 
    113 H113       29.0740   31.3576    7.4346 H         1 UNK         0.0806 
    114 H114       28.1396   31.7071    5.9876 H         1 UNK         0.0806 
    115 H115       32.5225   31.8975    6.3971 H         1 UNK         0.3010 
    116 H116       33.7652   33.6535    6.7710 H         1 UNK         0.0829 
    117 H117       31.8574   34.7128    8.0150 H         1 UNK         0.0813 
    118 H118       32.8952   35.8974    7.2405 H         1 UNK         0.0813 
    119 H119       31.3402   35.5091    6.5282 H         1 UNK         0.0813 
    120 H120       32.4855   32.9447    3.8765 H         1 UNK         0.3038 
    121 H121       33.9017   35.0878    2.3538 H         1 UNK         0.0769 
    122 H122       31.5744   34.5830    1.6287 H         1 UNK         0.0811 
    123 H123       32.7400   34.1464    0.3896 H         1 UNK         0.0811 
    124 H124       32.0004   32.8937    1.3722 H         1 UNK         0.0811 
    125 H125       33.6996   31.5237    2.7772 H         1 UNK         0.3204 
    126 H126       36.5879   31.2955    2.1592 H         1 UNK         0.0748 
    127 H127       35.3911   30.9076   -0.0261 H         1 UNK         0.0771 
    128 H128       36.2245   29.4722    0.5453 H         1 UNK         0.0771 
    129 H129       34.4830   29.5920    0.7209 H         1 UNK         0.0771 
    130 H130       33.7930   30.2098    3.9844 H         1 UNK         0.2980 
    131 H131       35.5508   28.4714    5.5322 H         1 UNK         0.0545 
    132 H132       33.9032   27.4752    7.4584 H         1 UNK         0.3459 
    133 H133       33.1805   28.8211    8.2971 H         1 UNK         0.3459 
    134 H134       34.6045   26.8942    3.9069 H         1 UNK         0.0616 
    135 H135       34.0365   26.5430    5.5020 H         1 UNK         0.0616 
    136 H136       31.3021   26.9298    6.2186 H         1 UNK         0.0634 
    137 H137       31.9475   25.4602    5.5207 H         1 UNK         0.0634 
@<TRIPOS>BOND
     1    1    2 1    
     2    1   72 1    
     3    1   73 1    
     4    1   74 1    
     5    2    3 2    
     6    2    4 am   BACKBONE|DICT|INTERRES
     7    4    5 1    
     8    4   75 1    
     9    5    6 1    
    10    5   35 1    
    11    5   76 1    
    12    6    7 1    
    13    6   77 1    
    14    6   78 1    
    15    7    8 1    
    16    8    9 1    
    17    8   79 1    
    18    8   80 1    
    19    9   10 ar   
    20    9   14 ar   
    21   10   11 ar   
    22   10   81 1    
    23   11   12 ar   
    24   11   71 1    
    25   12   13 ar   
    26   12   82 1    
    27   13   14 ar   
    28   13   15 1    
    29   14   83 1    
    30   15   16 1    
    31   15   84 1    
    32   15   85 1    
    33   16   17 1    
    34   17   18 1    
    35   17   86 1    
    36   17   87 1    
    37   18   19 1    
    38   18   37 1    
    39   18   88 1    
    40   19   20 am   BACKBONE|DICT|INTERRES
    41   19   89 1    
    42   20   21 2    
    43   20   22 1    
    44   22   23 1    
    45   22   24 1    
    46   22   90 1    
    47   23   91 1    
    48   23   92 1    
    49   23   93 1    
    50   24   25 am   BACKBONE|DICT|INTERRES
    51   24   94 1    
    52   25   26 2    
    53   25   27 1    
    54   27   28 1    
    55   27   29 1    
    56   27   95 1    
    57   28   96 1    
    58   28   97 1    
    59   28   98 1    
    60   29   30 am   BACKBONE|DICT|INTERRES
    61   29   99 1    
    62   30   31 2    
    63   30   32 1    
    64   32   33 1    
    65   32   34 1    
    66   32  100 1    
    67   33  101 1    
    68   33  102 1    
    69   33  103 1    
    70   34   35 am   BACKBONE|DICT|INTERRES
    71   34  104 1    
    72   35   36 2    
    73   37   38 2    
    74   37   39 am   BACKBONE|DICT|INTERRES
    75   39   40 1    
    76   39  105 1    
    77   40   41 1    
    78   40   42 1    
    79   40  106 1    
    80   41  107 1    
    81   41  108 1    
    82   41  109 1    
    83   42   43 2    
    84   42   44 am   BACKBONE|DICT|INTERRES
    85   44   45 1    
    86   44  110 1    
    87   45   46 1    
    88   45   47 1    
    89   45  111 1    
    90   46  112 1    
    91   46  113 1    
    92   46  114 1    
    93   47   48 2    
    94   47   49 am   BACKBONE|DICT|INTERRES
    95   49   50 1    
    96   49  115 1    
    97   50   51 1    
    98   50   52 1    
    99   50  116 1    
   100   51  117 1    
   101   51  118 1    
   102   51  119 1    
   103   52   53 2    
   104   52   54 am   BACKBONE|DICT|INTERRES
   105   54   55 1    
   106   54  120 1    
   107   55   56 1    
   108   55   57 1    
   109   55  121 1    
   110   56  122 1    
   111   56  123 1    
   112   56  124 1    
   113   57   58 2    
   114   57   59 am   BACKBONE|DICT|INTERRES
   115   59   60 1    
   116   59  125 1    
   117   60   61 1    
   118   60   62 1    
   119   60  126 1    
   120   61  127 1    
   121   61  128 1    
   122   61  129 1    
   123   62   63 2    
   124   62   64 am   BACKBONE|DICT|INTERRES
   125   64   65 1    
   126   64  130 1    
   127   65   66 1    
   128   65   69 1    
   129   65  131 1    
   130   66   67 am   BACKBONE|DICT|INTERRES
   131   66   68 2    
   132   67  132 1    
   133   67  133 1    
   134   69   70 1    
   135   69  134 1    
   136   69  135 1    
   137   70   71 1    
   138   71  136 1    
   139   71  137 1    
@<TRIPOS>SUBSTRUCTURE
     1 UNK         1 GROUP             0       ****    0 ROOT    
