@<TRIPOS>MOLECULE
3R136
137   139    1
SMALL
USER_CHARGES


@<TRIPOS>ATOM
      1 CA         30.1680   19.5718   -0.2493 C.3       0 UNK        -0.1979 
      2 C          28.6892   19.2099   -0.3590 C.2       0 UNK         0.4864 
      3 O          28.3548   18.2354   -1.0310 O.2       0 UNK        -0.5359 
      4 N          27.7711   19.9529    0.2712 N.am      1 UNK        -0.4318 
      5 CA         28.0016   21.1490    1.0787 C.3       1 UNK         0.0824 
      6 C6         28.2443   20.8029    2.5720 C.3       12 UNK        -0.0944 
      7 S7         28.9407   22.2041    3.5117 S.3       12 UNK        -0.2672 
      8 C8         30.7309   21.8859    3.4271 C.3       12 UNK         0.0333 
      9 C9         31.4809   23.0440    2.7828 C.ar      12 UNK        -0.0807 
     10 C10        32.1579   23.9737    3.5780 C.ar      12 UNK        -0.0894 
     11 C11        32.9189   24.9897    2.9918 C.ar      12 UNK        -0.0804 
     12 C12        32.9754   25.0908    1.5974 C.ar      12 UNK        -0.0824 
     13 C13        32.2953   24.1723    0.7887 C.ar      12 UNK        -0.0762 
     14 C14        31.5513   23.1524    1.3905 C.ar      12 UNK        -0.0782 
     15 C15        32.4368   24.2090   -0.7307 C.3       12 UNK         0.0230 
     16 S16        32.0956   25.8387   -1.4705 S.3       12 UNK        -0.2608 
     17 C17        30.2848   25.9719   -1.3015 C.3       12 UNK        -0.0989 
     18 CA         29.8579   27.4061   -0.8991 C.3       5 UNK         0.0716 
     19 N          28.4603   27.6801   -1.2348 N.am      5 UNK        -0.4135 
     20 C          27.9793   28.8876   -1.5661 C.2       4 UNK         0.5031 
     21 O          28.6805   29.8873   -1.7237 O.2       4 UNK        -0.5229 
     22 CA         26.4555   29.0098   -1.7569 C.3       4 UNK         0.0329 
     23 CB         26.0774   28.7745   -3.2282 C.3       4 UNK        -0.2001 
     24 N          25.6991   28.0856   -0.9100 N.am      4 UNK        -0.4303 
     25 C          25.5941   28.1866    0.4230 C.2       3 UNK         0.5044 
     26 O          26.0177   29.1424    1.0699 O.2       3 UNK        -0.5152 
     27 CA         24.9245   27.0156    1.1672 C.3       3 UNK         0.0319 
     28 CB         23.4732   27.3694    1.5289 C.3       3 UNK        -0.2001 
     29 N          24.9433   25.7413    0.4363 N.am      3 UNK        -0.4354 
     30 C          26.0491   25.0726    0.0829 C.2       2 UNK         0.4964 
     31 O          27.1957   25.4800    0.2885 O.2       2 UNK        -0.5047 
     32 CA         25.8436   23.7736   -0.7079 C.3       2 UNK         0.0288 
     33 CB         25.9652   24.0495   -2.2158 C.3       2 UNK        -0.2113 
     34 N          26.8363   22.7712   -0.3235 N.am      2 UNK        -0.4145 
     35 C          26.8135   22.0939    0.8323 C.2       1 UNK         0.5006 
     36 O          25.8837   22.1527    1.6400 O.2       1 UNK        -0.5103 
     37 C          30.0834   27.6798    0.5966 C.2       5 UNK         0.5055 
     38 O          30.9633   28.4650    0.9519 O.2       5 UNK        -0.5220 
     39 N          29.2370   27.0786    1.4436 N.am      6 UNK        -0.4450 
     40 CA         29.2512   27.2063    2.9010 C.3       6 UNK         0.0367 
     41 CB         28.5871   25.9606    3.5085 C.3       6 UNK        -0.1929 
     42 C          28.6193   28.5211    3.4003 C.2       6 UNK         0.5070 
     43 O          27.8840   28.5184    4.3900 O.2       6 UNK        -0.5237 
     44 N          28.9137   29.6333    2.7181 N.am      7 UNK        -0.4739 
     45 CA         28.3779   30.9678    2.9825 C.3       7 UNK         0.0276 
     46 CB         28.4019   31.7829    1.6760 C.3       7 UNK        -0.1927 
     47 C          29.1226   31.6565    4.1403 C.2       7 UNK         0.5013 
     48 O          29.7375   32.7071    3.9406 O.2       7 UNK        -0.5193 
     49 N          29.0614   31.0326    5.3265 N.am      8 UNK        -0.4253 
     50 CA         29.6136   31.4720    6.6132 C.3       8 UNK         0.0242 
     51 CB         28.7258   32.5864    7.2119 C.3       8 UNK        -0.2000 
     52 C          31.1031   31.8521    6.5147 C.2       8 UNK         0.4948 
     53 O          31.9504   30.9613    6.4333 O.2       8 UNK        -0.5275 
     54 N          31.3876   33.1622    6.4775 N.am      9 UNK        -0.4246 
     55 CA         32.7171   33.7612    6.3320 C.3       9 UNK         0.0261 
     56 CB         32.5884   35.2917    6.3945 C.3       9 UNK        -0.1959 
     57 C          33.4810   33.3385    5.0632 C.2       9 UNK         0.5033 
     58 O          34.7101   33.4202    5.0619 O.2       9 UNK        -0.5390 
     59 N          32.7722   32.8539    4.0305 N.am      10 UNK        -0.4215 
     60 CA         33.3573   32.2622    2.8210 C.3       10 UNK         0.0240 
     61 CB         32.2379   31.8938    1.8371 C.3       10 UNK        -0.1982 
     62 C          34.2520   31.0358    3.0910 C.2       10 UNK         0.4970 
     63 O          35.1706   30.7882    2.3086 O.2       10 UNK        -0.4916 
     64 N          33.9953   30.3155    4.1917 N.am      11 UNK        -0.4279 
     65 CA         34.8497   29.2274    4.6889 C.3       11 UNK         0.1003 
     66 C          36.0947   29.7132    5.4902 C.2       11 UNK         0.5709 
     67 N          36.2894   31.0051    5.7320 N.am      11 UNK        -0.7358 
     68 O          36.9197   28.8951    5.8905 O.2       11 UNK        -0.4999 
     69 C69        34.0324   28.1784    5.4872 C.3       12 UNK        -0.0954 
     70 S70        32.7781   27.3462    4.4593 S.3       12 UNK        -0.2268 
     71 C71        33.7418   25.9245    3.8666 C.3       12 UNK         0.0203 
     72 H72        30.3858   20.4708   -0.8249 H         1 UNK         0.0888 
     73 H73        30.4634   19.7325    0.7861 H         1 UNK         0.0888 
     74 H74        30.7869   18.7662   -0.6440 H         1 UNK         0.0888 
     75 H75        26.7966   19.7026    0.1679 H         1 UNK         0.3017 
     76 H76        28.8821   21.6705    0.7037 H         1 UNK         0.0873 
     77 H77        28.9172   19.9499    2.6639 H         1 UNK         0.0745 
     78 H78        27.3192   20.4836    3.0553 H         1 UNK         0.0745 
     79 H79        31.0996   21.7122    4.4391 H         1 UNK         0.0705 
     80 H80        30.9402   20.9698    2.8746 H         1 UNK         0.0705 
     81 H81        32.1223   23.8871    4.6555 H         1 UNK         0.1334 
     82 H82        33.5746   25.8661    1.1396 H         1 UNK         0.1417 
     83 H83        31.0549   22.4183    0.7739 H         1 UNK         0.1562 
     84 H84        31.7898   23.4686   -1.2040 H         1 UNK         0.0748 
     85 H85        33.4587   23.9244   -0.9844 H         1 UNK         0.0748 
     86 H86        29.9061   25.2253   -0.6002 H         1 UNK         0.0940 
     87 H87        29.8558   25.7139   -2.2711 H         1 UNK         0.0940 
     88 H88        30.4812   28.1078   -1.4587 H         1 UNK         0.0703 
     89 H89        27.8071   26.9272   -1.0583 H         1 UNK         0.3081 
     90 H90        26.1696   30.0293   -1.4884 H         1 UNK         0.0719 
     91 H91        26.6095   29.4669   -3.8821 H         1 UNK         0.0809 
     92 H92        26.3247   27.7634   -3.5545 H         1 UNK         0.0809 
     93 H93        25.0113   28.9306   -3.3940 H         1 UNK         0.0809 
     94 H94        25.2846   27.2838   -1.3613 H         1 UNK         0.2990 
     95 H95        25.4810   26.8698    2.0955 H         1 UNK         0.0690 
     96 H96        23.4287   28.2982    2.0997 H         1 UNK         0.0788 
     97 H97        23.0159   26.5933    2.1430 H         1 UNK         0.0788 
     98 H98        22.8561   27.5038    0.6395 H         1 UNK         0.0788 
     99 H99        24.0426   25.3447    0.2078 H         1 UNK         0.2993 
    100 H100       24.8470   23.3776   -0.4997 H         1 UNK         0.0949 
    101 H101       25.8124   23.1403   -2.7978 H         1 UNK         0.0767 
    102 H102       25.2159   24.7707   -2.5450 H         1 UNK         0.0767 
    103 H103       26.9445   24.4534   -2.4774 H         1 UNK         0.0767 
    104 H104       27.6274   22.6630   -0.9405 H         1 UNK         0.3013 
    105 H105       28.5106   26.4776    1.0588 H         1 UNK         0.3121 
    106 H106       30.2898   27.2135    3.2260 H         1 UNK         0.0774 
    107 H107       28.6478   25.9702    4.5973 H         1 UNK         0.0815 
    108 H108       27.5343   25.8872    3.2344 H         1 UNK         0.0815 
    109 H109       29.0875   25.0559    3.1668 H         1 UNK         0.0815 
    110 H110       29.5831   29.5474    1.9608 H         1 UNK         0.2987 
    111 H111       27.3326   30.8718    3.2856 H         1 UNK         0.0949 
    112 H112       28.0130   32.7896    1.8342 H         1 UNK         0.0806 
    113 H113       29.4085   31.8793    1.2719 H         1 UNK         0.0806 
    114 H114       27.7828   31.3150    0.9102 H         1 UNK         0.0806 
    115 H115       28.5824   30.1362    5.3338 H         1 UNK         0.3010 
    116 H116       29.5638   30.6129    7.2841 H         1 UNK         0.0829 
    117 H117       28.6356   33.4480    6.5493 H         1 UNK         0.0813 
    118 H118       27.7177   32.2176    7.4022 H         1 UNK         0.0813 
    119 H119       29.1200   32.9371    8.1669 H         1 UNK         0.0813 
    120 H120       30.6096   33.8053    6.5042 H         1 UNK         0.3038 
    121 H121       33.3130   33.4319    7.1857 H         1 UNK         0.0769 
    122 H122       31.9733   35.6779    5.5806 H         1 UNK         0.0811 
    123 H123       33.5664   35.7696    6.3187 H         1 UNK         0.0811 
    124 H124       32.1450   35.6162    7.3360 H         1 UNK         0.0811 
    125 H125       31.7584   32.8354    4.1044 H         1 UNK         0.3204 
    126 H126       33.9841   33.0259    2.3562 H         1 UNK         0.0748 
    127 H127       32.6476   31.5015    0.9052 H         1 UNK         0.0771 
    128 H128       31.5806   31.1269    2.2486 H         1 UNK         0.0771 
    129 H129       31.6314   32.7636    1.5845 H         1 UNK         0.0771 
    130 H130       33.2321   30.5875    4.8016 H         1 UNK         0.2980 
    131 H131       35.2643   28.7095    3.8222 H         1 UNK         0.0545 
    132 H132       37.1091   31.2842    6.2467 H         1 UNK         0.3459 
    133 H133       35.6441   31.7138    5.4000 H         1 UNK         0.3459 
    134 H134       33.5261   28.6537    6.3289 H         1 UNK         0.0616 
    135 H135       34.6831   27.4165    5.9203 H         1 UNK         0.0616 
    136 H136       34.6102   26.2872    3.3147 H         1 UNK         0.0634 
    137 H137       34.1319   25.3723    4.7230 H         1 UNK         0.0634 
@<TRIPOS>BOND
     1    1    2 1    
     2    1   72 1    
     3    1   73 1    
     4    1   74 1    
     5    2    3 2    
     6    2    4 am   BACKBONE|DICT|INTERRES
     7    4    5 1    
     8    4   75 1    
     9    5    6 1    
    10    5   35 1    
    11    5   76 1    
    12    6    7 1    
    13    6   77 1    
    14    6   78 1    
    15    7    8 1    
    16    8    9 1    
    17    8   79 1    
    18    8   80 1    
    19    9   10 ar   
    20    9   14 ar   
    21   10   11 ar   
    22   10   81 1    
    23   11   12 ar   
    24   11   71 1    
    25   12   13 ar   
    26   12   82 1    
    27   13   14 ar   
    28   13   15 1    
    29   14   83 1    
    30   15   16 1    
    31   15   84 1    
    32   15   85 1    
    33   16   17 1    
    34   17   18 1    
    35   17   86 1    
    36   17   87 1    
    37   18   19 1    
    38   18   37 1    
    39   18   88 1    
    40   19   20 am   BACKBONE|DICT|INTERRES
    41   19   89 1    
    42   20   21 2    
    43   20   22 1    
    44   22   23 1    
    45   22   24 1    
    46   22   90 1    
    47   23   91 1    
    48   23   92 1    
    49   23   93 1    
    50   24   25 am   BACKBONE|DICT|INTERRES
    51   24   94 1    
    52   25   26 2    
    53   25   27 1    
    54   27   28 1    
    55   27   29 1    
    56   27   95 1    
    57   28   96 1    
    58   28   97 1    
    59   28   98 1    
    60   29   30 am   BACKBONE|DICT|INTERRES
    61   29   99 1    
    62   30   31 2    
    63   30   32 1    
    64   32   33 1    
    65   32   34 1    
    66   32  100 1    
    67   33  101 1    
    68   33  102 1    
    69   33  103 1    
    70   34   35 am   BACKBONE|DICT|INTERRES
    71   34  104 1    
    72   35   36 2    
    73   37   38 2    
    74   37   39 am   BACKBONE|DICT|INTERRES
    75   39   40 1    
    76   39  105 1    
    77   40   41 1    
    78   40   42 1    
    79   40  106 1    
    80   41  107 1    
    81   41  108 1    
    82   41  109 1    
    83   42   43 2    
    84   42   44 am   BACKBONE|DICT|INTERRES
    85   44   45 1    
    86   44  110 1    
    87   45   46 1    
    88   45   47 1    
    89   45  111 1    
    90   46  112 1    
    91   46  113 1    
    92   46  114 1    
    93   47   48 2    
    94   47   49 am   BACKBONE|DICT|INTERRES
    95   49   50 1    
    96   49  115 1    
    97   50   51 1    
    98   50   52 1    
    99   50  116 1    
   100   51  117 1    
   101   51  118 1    
   102   51  119 1    
   103   52   53 2    
   104   52   54 am   BACKBONE|DICT|INTERRES
   105   54   55 1    
   106   54  120 1    
   107   55   56 1    
   108   55   57 1    
   109   55  121 1    
   110   56  122 1    
   111   56  123 1    
   112   56  124 1    
   113   57   58 2    
   114   57   59 am   BACKBONE|DICT|INTERRES
   115   59   60 1    
   116   59  125 1    
   117   60   61 1    
   118   60   62 1    
   119   60  126 1    
   120   61  127 1    
   121   61  128 1    
   122   61  129 1    
   123   62   63 2    
   124   62   64 am   BACKBONE|DICT|INTERRES
   125   64   65 1    
   126   64  130 1    
   127   65   66 1    
   128   65   69 1    
   129   65  131 1    
   130   66   67 am   BACKBONE|DICT|INTERRES
   131   66   68 2    
   132   67  132 1    
   133   67  133 1    
   134   69   70 1    
   135   69  134 1    
   136   69  135 1    
   137   70   71 1    
   138   71  136 1    
   139   71  137 1    
@<TRIPOS>SUBSTRUCTURE
     1 UNK         1 GROUP             0       ****    0 ROOT    
