@<TRIPOS>MOLECULE
3R136
137   139    1
SMALL
USER_CHARGES


@<TRIPOS>ATOM
      1 CA         28.3925   21.9820   -0.9635 C.3       0 UNK        -0.1979 
      2 C          28.3882   22.1028    0.5535 C.2       0 UNK         0.4864 
      3 O          28.1774   21.1054    1.2433 O.2       0 UNK        -0.5359 
      4 N          28.5876   23.3256    1.0641 N.am      1 UNK        -0.4318 
      5 CA         28.5898   23.7187    2.4825 C.3       1 UNK         0.0824 
      6 C6         29.6362   22.9734    3.3614 C.3       12 UNK        -0.0944 
      7 S7         31.3547   23.1619    2.7729 S.3       12 UNK        -0.2672 
      8 C8         32.0422   24.3404    3.9814 C.3       12 UNK         0.0333 
      9 C9         31.7379   25.7792    3.5924 C.ar      12 UNK        -0.0807 
     10 C10        32.6908   26.5317    2.9008 C.ar      12 UNK        -0.0894 
     11 C11        32.4269   27.8566    2.5421 C.ar      12 UNK        -0.0804 
     12 C12        31.1819   28.4155    2.8473 C.ar      12 UNK        -0.0824 
     13 C13        30.2039   27.6577    3.4996 C.ar      12 UNK        -0.0762 
     14 C14        30.5025   26.3538    3.9038 C.ar      12 UNK        -0.0782 
     15 C15        28.8176   28.2326    3.7568 C.3       12 UNK         0.0230 
     16 S16        27.6552   27.8027    2.4209 S.3       12 UNK        -0.2608 
     17 C17        28.1200   29.0011    1.1240 C.3       12 UNK        -0.0989 
     18 CA         28.5476   28.3206   -0.2017 C.3       5 UNK         0.0716 
     19 N          27.4095   27.7618   -0.9262 N.am      5 UNK        -0.4135 
     20 C          27.0812   26.4731   -1.0233 C.2       4 UNK         0.5031 
     21 O          27.6569   25.5535   -0.4334 O.2       4 UNK        -0.5229 
     22 CA         25.9247   26.1501   -1.9750 C.3       4 UNK         0.0329 
     23 CB         26.4377   25.9240   -3.4087 C.3       4 UNK        -0.2001 
     24 N          25.2593   24.9506   -1.4862 N.am      4 UNK        -0.4303 
     25 C          23.9862   24.6061   -1.7080 C.2       3 UNK         0.5044 
     26 O          23.2202   25.2325   -2.4413 O.2       3 UNK        -0.5152 
     27 CA         23.4755   23.3547   -0.9700 C.3       3 UNK         0.0319 
     28 CB         23.7072   22.0965   -1.8226 C.3       3 UNK        -0.2001 
     29 N          24.0966   23.1699    0.3467 N.am      3 UNK        -0.4354 
     30 C          23.8915   23.9705    1.4053 C.2       2 UNK         0.4964 
     31 O          23.1208   24.9300    1.4068 O.2       2 UNK        -0.5047 
     32 CA         24.7240   23.6686    2.6539 C.3       2 UNK         0.0288 
     33 CB         24.2888   22.3463    3.3173 C.3       2 UNK        -0.2113 
     34 N          26.1372   23.6415    2.2841 N.am      2 UNK        -0.4145 
     35 C          27.1794   23.7095    3.1195 C.2       1 UNK         0.5006 
     36 O          27.0603   23.7911    4.3438 O.2       1 UNK        -0.5103 
     37 C          29.1683   29.3517   -1.1578 C.2       5 UNK         0.5055 
     38 O          28.4196   30.0723   -1.8249 O.2       5 UNK        -0.5220 
     39 N          30.5056   29.4111   -1.2171 N.am      6 UNK        -0.4450 
     40 CA         31.2394   30.3524   -2.0718 C.3       6 UNK         0.0367 
     41 CB         32.7074   29.9096   -2.1974 C.3       6 UNK        -0.1929 
     42 C          31.1421   31.8005   -1.5620 C.2       6 UNK         0.5070 
     43 O          30.8137   32.7023   -2.3331 O.2       6 UNK        -0.5237 
     44 N          31.4126   31.9789   -0.2662 N.am      7 UNK        -0.4739 
     45 CA         31.3718   33.2229    0.4978 C.3       7 UNK         0.0276 
     46 CB         32.4619   34.2023    0.0162 C.3       7 UNK        -0.1927 
     47 C          31.6032   32.8490    1.9668 C.2       7 UNK         0.5013 
     48 O          32.1615   31.7808    2.2270 O.2       7 UNK        -0.5193 
     49 N          31.1951   33.7298    2.8916 N.am      8 UNK        -0.4253 
     50 CA         31.3307   33.5824    4.3488 C.3       8 UNK         0.0242 
     51 CB         32.8107   33.7516    4.7670 C.3       8 UNK        -0.2000 
     52 C          30.6719   32.2836    4.8656 C.2       8 UNK         0.4948 
     53 O          29.5474   31.9830    4.4578 O.2       8 UNK        -0.5275 
     54 N          31.3624   31.5430    5.7398 N.am      9 UNK        -0.4246 
     55 CA         30.9557   30.2387    6.2478 C.3       9 UNK         0.0261 
     56 CB         29.9215   30.3964    7.3781 C.3       9 UNK        -0.1959 
     57 C          32.1950   29.4859    6.7379 C.2       9 UNK         0.5033 
     58 O          33.1366   30.1262    7.2130 O.2       9 UNK        -0.5390 
     59 N          32.1381   28.1483    6.6496 N.am      10 UNK        -0.4215 
     60 CA         33.1054   27.1738    7.1722 C.3       10 UNK         0.0240 
     61 CB         32.9961   27.0984    8.7103 C.3       10 UNK        -0.1982 
     62 C          34.5498   27.4109    6.6879 C.2       10 UNK         0.4970 
     63 O          35.4674   27.5070    7.5058 O.2       10 UNK        -0.4916 
     64 N          34.7210   27.5068    5.3632 N.am      11 UNK        -0.4279 
     65 CA         36.0160   27.7586    4.7054 C.3       11 UNK         0.1003 
     66 C          37.0753   26.6268    4.8609 C.2       11 UNK         0.5709 
     67 N          36.7006   25.4094    5.2370 N.am      11 UNK        -0.7358 
     68 O          38.2604   26.8611    4.6355 O.2       11 UNK        -0.4999 
     69 C69        35.8557   28.1326    3.2084 C.3       12 UNK        -0.0954 
     70 S70        34.6580   29.4762    2.9089 S.3       12 UNK        -0.2268 
     71 C71        33.4674   28.6732    1.7888 C.3       12 UNK         0.0203 
     72 H72        27.4521   21.5554   -1.3111 H         1 UNK         0.0888 
     73 H73        28.5261   22.9490   -1.4492 H         1 UNK         0.0888 
     74 H74        29.2028   21.3276   -1.2837 H         1 UNK         0.0888 
     75 H75        28.6595   24.1122    0.4226 H         1 UNK         0.3017 
     76 H76        28.8666   24.7718    2.4610 H         1 UNK         0.0873 
     77 H77        29.5868   23.3161    4.3957 H         1 UNK         0.0745 
     78 H78        29.4094   21.9074    3.4036 H         1 UNK         0.0745 
     79 H79        31.6667   24.1271    4.9831 H         1 UNK         0.0705 
     80 H80        33.1217   24.1901    4.0310 H         1 UNK         0.0705 
     81 H81        33.6367   26.0796    2.6378 H         1 UNK         0.1334 
     82 H82        30.9712   29.4370    2.5626 H         1 UNK         0.1417 
     83 H83        29.7560   25.7728    4.4280 H         1 UNK         0.1562 
     84 H84        28.8557   29.3171    3.8679 H         1 UNK         0.0748 
     85 H85        28.4267   27.8457    4.6991 H         1 UNK         0.0748 
     86 H86        28.9162   29.6442    1.5009 H         1 UNK         0.0940 
     87 H87        27.2697   29.6651    0.9557 H         1 UNK         0.0940 
     88 H88        29.2866   27.5421    0.0032 H         1 UNK         0.0703 
     89 H89        26.9279   28.4409   -1.5017 H         1 UNK         0.3081 
     90 H90        25.2169   26.9821   -1.9632 H         1 UNK         0.0719 
     91 H91        27.1425   25.0928   -3.4564 H         1 UNK         0.0809 
     92 H92        25.6186   25.7072   -4.0945 H         1 UNK         0.0809 
     93 H93        26.9496   26.8098   -3.7870 H         1 UNK         0.0809 
     94 H94        25.8239   24.3976   -0.8585 H         1 UNK         0.2990 
     95 H95        22.3999   23.4743   -0.8226 H         1 UNK         0.0690 
     96 H96        23.2818   21.2115   -1.3488 H         1 UNK         0.0788 
     97 H97        24.7685   21.9106   -1.9928 H         1 UNK         0.0788 
     98 H98        23.2338   22.1967   -2.8005 H         1 UNK         0.0788 
     99 H99        24.6962   22.3643    0.4545 H         1 UNK         0.2993 
    100 H100       24.5683   24.4857    3.3621 H         1 UNK         0.0949 
    101 H101       24.5049   21.4831    2.6869 H         1 UNK         0.0767 
    102 H102       24.7948   22.1947    4.2708 H         1 UNK         0.0767 
    103 H103       23.2169   22.3456    3.5202 H         1 UNK         0.0767 
    104 H104       26.3426   23.6442    1.2968 H         1 UNK         0.3013 
    105 H105       31.0536   28.7777   -0.6533 H         1 UNK         0.3121 
    106 H106       30.7962   30.3229   -3.0700 H         1 UNK         0.0774 
    107 H107       33.2614   30.5871   -2.8487 H         1 UNK         0.0815 
    108 H108       32.7853   28.9123   -2.6304 H         1 UNK         0.0815 
    109 H109       33.2176   29.8984   -1.2340 H         1 UNK         0.0815 
    110 H110       31.6793   31.1849    0.3034 H         1 UNK         0.2987 
    111 H111       30.3829   33.6733    0.3912 H         1 UNK         0.0949 
    112 H112       32.2999   34.5132   -1.0156 H         1 UNK         0.0806 
    113 H113       32.4719   35.1087    0.6228 H         1 UNK         0.0806 
    114 H114       33.4558   33.7571    0.0793 H         1 UNK         0.0806 
    115 H115       30.7175   34.5644    2.5811 H         1 UNK         0.3010 
    116 H116       30.7656   34.4023    4.7947 H         1 UNK         0.0829 
    117 H117       32.9168   33.7958    5.8517 H         1 UNK         0.0813 
    118 H118       33.4350   32.9345    4.4018 H         1 UNK         0.0813 
    119 H119       33.2242   34.6802    4.3733 H         1 UNK         0.0813 
    120 H120       32.2959   31.8231    6.0152 H         1 UNK         0.3038 
    121 H121       30.5153   29.6725    5.4302 H         1 UNK         0.0769 
    122 H122       30.3198   30.9845    8.2058 H         1 UNK         0.0811 
    123 H123       29.6262   29.4259    7.7787 H         1 UNK         0.0811 
    124 H124       29.0150   30.8876    7.0242 H         1 UNK         0.0811 
    125 H125       31.3220   27.7444    6.2121 H         1 UNK         0.3204 
    126 H126       32.8092   26.2014    6.7754 H         1 UNK         0.0748 
    127 H127       33.6422   26.3167    9.1123 H         1 UNK         0.0771 
    128 H128       33.2876   28.0376    9.1821 H         1 UNK         0.0771 
    129 H129       31.9782   26.8683    9.0249 H         1 UNK         0.0771 
    130 H130       33.9166   27.4576    4.7549 H         1 UNK         0.2980 
    131 H131       36.4432   28.6302    5.2052 H         1 UNK         0.0545 
    132 H132       35.7340   25.2074    5.4310 H         1 UNK         0.3459 
    133 H133       37.3977   24.6885    5.3361 H         1 UNK         0.3459 
    134 H134       35.5814   27.2544    2.6237 H         1 UNK         0.0616 
    135 H135       36.8132   28.4655    2.8037 H         1 UNK         0.0616 
    136 H136       32.9732   29.4489    1.2042 H         1 UNK         0.0634 
    137 H137       33.9940   28.0485    1.0660 H         1 UNK         0.0634 
@<TRIPOS>BOND
     1    1    2 1    
     2    1   72 1    
     3    1   73 1    
     4    1   74 1    
     5    2    3 2    
     6    2    4 am   BACKBONE|DICT|INTERRES
     7    4    5 1    
     8    4   75 1    
     9    5    6 1    
    10    5   35 1    
    11    5   76 1    
    12    6    7 1    
    13    6   77 1    
    14    6   78 1    
    15    7    8 1    
    16    8    9 1    
    17    8   79 1    
    18    8   80 1    
    19    9   10 ar   
    20    9   14 ar   
    21   10   11 ar   
    22   10   81 1    
    23   11   12 ar   
    24   11   71 1    
    25   12   13 ar   
    26   12   82 1    
    27   13   14 ar   
    28   13   15 1    
    29   14   83 1    
    30   15   16 1    
    31   15   84 1    
    32   15   85 1    
    33   16   17 1    
    34   17   18 1    
    35   17   86 1    
    36   17   87 1    
    37   18   19 1    
    38   18   37 1    
    39   18   88 1    
    40   19   20 am   BACKBONE|DICT|INTERRES
    41   19   89 1    
    42   20   21 2    
    43   20   22 1    
    44   22   23 1    
    45   22   24 1    
    46   22   90 1    
    47   23   91 1    
    48   23   92 1    
    49   23   93 1    
    50   24   25 am   BACKBONE|DICT|INTERRES
    51   24   94 1    
    52   25   26 2    
    53   25   27 1    
    54   27   28 1    
    55   27   29 1    
    56   27   95 1    
    57   28   96 1    
    58   28   97 1    
    59   28   98 1    
    60   29   30 am   BACKBONE|DICT|INTERRES
    61   29   99 1    
    62   30   31 2    
    63   30   32 1    
    64   32   33 1    
    65   32   34 1    
    66   32  100 1    
    67   33  101 1    
    68   33  102 1    
    69   33  103 1    
    70   34   35 am   BACKBONE|DICT|INTERRES
    71   34  104 1    
    72   35   36 2    
    73   37   38 2    
    74   37   39 am   BACKBONE|DICT|INTERRES
    75   39   40 1    
    76   39  105 1    
    77   40   41 1    
    78   40   42 1    
    79   40  106 1    
    80   41  107 1    
    81   41  108 1    
    82   41  109 1    
    83   42   43 2    
    84   42   44 am   BACKBONE|DICT|INTERRES
    85   44   45 1    
    86   44  110 1    
    87   45   46 1    
    88   45   47 1    
    89   45  111 1    
    90   46  112 1    
    91   46  113 1    
    92   46  114 1    
    93   47   48 2    
    94   47   49 am   BACKBONE|DICT|INTERRES
    95   49   50 1    
    96   49  115 1    
    97   50   51 1    
    98   50   52 1    
    99   50  116 1    
   100   51  117 1    
   101   51  118 1    
   102   51  119 1    
   103   52   53 2    
   104   52   54 am   BACKBONE|DICT|INTERRES
   105   54   55 1    
   106   54  120 1    
   107   55   56 1    
   108   55   57 1    
   109   55  121 1    
   110   56  122 1    
   111   56  123 1    
   112   56  124 1    
   113   57   58 2    
   114   57   59 am   BACKBONE|DICT|INTERRES
   115   59   60 1    
   116   59  125 1    
   117   60   61 1    
   118   60   62 1    
   119   60  126 1    
   120   61  127 1    
   121   61  128 1    
   122   61  129 1    
   123   62   63 2    
   124   62   64 am   BACKBONE|DICT|INTERRES
   125   64   65 1    
   126   64  130 1    
   127   65   66 1    
   128   65   69 1    
   129   65  131 1    
   130   66   67 am   BACKBONE|DICT|INTERRES
   131   66   68 2    
   132   67  132 1    
   133   67  133 1    
   134   69   70 1    
   135   69  134 1    
   136   69  135 1    
   137   70   71 1    
   138   71  136 1    
   139   71  137 1    
@<TRIPOS>SUBSTRUCTURE
     1 UNK         1 GROUP             0       ****    0 ROOT    
