@<TRIPOS>MOLECULE
3R136
137   139    1
SMALL
USER_CHARGES


@<TRIPOS>ATOM
      1 CA         31.7817   25.7448   -5.3836 C.3       0 UNK        -0.1979 
      2 C          31.1127   25.9045   -4.0264 C.2       0 UNK         0.4864 
      3 O          30.9072   27.0324   -3.5767 O.2       0 UNK        -0.5359 
      4 N          30.7805   24.7852   -3.3701 N.am      1 UNK        -0.4318 
      5 CA         30.0797   24.7508   -2.0852 C.3       1 UNK         0.0824 
      6 C6         30.2338   23.3665   -1.4053 C.3       12 UNK        -0.0944 
      7 S7         29.7361   23.4040    0.3484 S.3       12 UNK        -0.2672 
      8 C8         31.3401   23.3019    1.1966 C.3       12 UNK         0.0333 
      9 C9         31.2480   23.9060    2.5880 C.ar      12 UNK        -0.0807 
     10 C10        31.8813   25.1201    2.8657 C.ar      12 UNK        -0.0894 
     11 C11        31.7796   25.7003    4.1309 C.ar      12 UNK        -0.0804 
     12 C12        31.0409   25.0546    5.1268 C.ar      12 UNK        -0.0824 
     13 C13        30.3897   23.8457    4.8580 C.ar      12 UNK        -0.0762 
     14 C14        30.5104   23.2680    3.5906 C.ar      12 UNK        -0.0782 
     15 C15        29.5297   23.1803    5.9251 C.3       12 UNK         0.0230 
     16 S16        27.7465   23.4457    5.6319 S.3       12 UNK        -0.2608 
     17 C17        27.6343   25.2661    5.6821 C.3       12 UNK        -0.0989 
     18 CA         27.6023   25.8701    4.2434 C.3       5 UNK         0.0716 
     19 N          26.2598   26.0629    3.6865 N.am      5 UNK        -0.4135 
     20 C          25.2767   26.8342    4.1791 C.2       4 UNK         0.5031 
     21 O          25.3456   27.4244    5.2578 O.2       4 UNK        -0.5229 
     22 CA         23.9969   27.0132    3.3318 C.3       4 UNK         0.0329 
     23 CB         23.7826   28.4972    2.9844 C.3       4 UNK        -0.2001 
     24 N          23.9906   26.2434    2.0866 N.am      4 UNK        -0.4303 
     25 C          23.8177   24.9190    1.9851 C.2       3 UNK         0.5044 
     26 O          23.5320   24.1928    2.9371 O.2       3 UNK        -0.5152 
     27 CA         24.0337   24.2908    0.5931 C.3       3 UNK         0.0319 
     28 CB         22.6827   23.9372   -0.0500 C.3       3 UNK        -0.2001 
     29 N          24.8113   25.1129   -0.3472 N.am      3 UNK        -0.4354 
     30 C          26.0739   25.5264   -0.1657 C.2       2 UNK         0.4964 
     31 O          26.7198   25.3301    0.8677 O.2       2 UNK        -0.5047 
     32 CA         26.6838   26.3681   -1.2940 C.3       2 UNK         0.0288 
     33 CB         26.5473   27.8642   -0.9685 C.3       2 UNK        -0.2113 
     34 N          28.0990   26.0376   -1.4275 N.am      2 UNK        -0.4145 
     35 C          28.5948   25.1271   -2.2716 C.2       1 UNK         0.5006 
     36 O          27.9303   24.5628   -3.1461 O.2       1 UNK        -0.5103 
     37 C          28.4192   27.1649    4.0775 C.2       5 UNK         0.5055 
     38 O          28.7711   27.8292    5.0553 O.2       5 UNK        -0.5220 
     39 N          28.7001   27.4926    2.8134 N.am      6 UNK        -0.4450 
     40 CA         29.5844   28.5713    2.3992 C.3       6 UNK         0.0367 
     41 CB         28.7722   29.8569    2.1669 C.3       6 UNK        -0.1929 
     42 C          30.3096   28.1222    1.1277 C.2       6 UNK         0.5070 
     43 O          29.7864   27.2815    0.3937 O.2       6 UNK        -0.5237 
     44 N          31.4882   28.6963    0.8859 N.am      7 UNK        -0.4739 
     45 CA         32.2989   28.4803   -0.3099 C.3       7 UNK         0.0276 
     46 CB         33.1055   27.1686   -0.2025 C.3       7 UNK        -0.1927 
     47 C          33.1614   29.7309   -0.4872 C.2       7 UNK         0.5013 
     48 O          32.6926   30.7117   -1.0677 O.2       7 UNK        -0.5193 
     49 N          34.3694   29.7210    0.0926 N.am      8 UNK        -0.4253 
     50 CA         35.2221   30.8981    0.2785 C.3       8 UNK         0.0242 
     51 CB         36.6754   30.4359    0.4947 C.3       8 UNK        -0.2000 
     52 C          34.6839   31.7418    1.4506 C.2       8 UNK         0.4948 
     53 O          35.2957   31.7753    2.5202 O.2       8 UNK        -0.5275 
     54 N          33.5059   32.3432    1.2271 N.am      9 UNK        -0.4246 
     55 CA         32.6003   32.9486    2.2100 C.3       9 UNK         0.0261 
     56 CB         33.2837   34.1060    2.9729 C.3       9 UNK        -0.1959 
     57 C          31.9840   31.8871    3.1454 C.2       9 UNK         0.5033 
     58 O          32.1169   30.6820    2.9012 O.2       9 UNK        -0.5390 
     59 N          31.2862   32.3475    4.1909 N.am      10 UNK        -0.4215 
     60 CA         30.6944   31.5150    5.2394 C.3       10 UNK         0.0240 
     61 CB         29.5760   32.3071    5.9410 C.3       10 UNK        -0.1982 
     62 C          31.7839   31.0373    6.2155 C.2       10 UNK         0.4970 
     63 O          31.9243   31.5918    7.3066 O.2       10 UNK        -0.4916 
     64 N          32.5647   30.0485    5.7680 N.am      11 UNK        -0.4279 
     65 CA         33.7195   29.4653    6.4679 C.3       11 UNK         0.1003 
     66 C          33.4318   28.7906    7.8445 C.2       11 UNK         0.5709 
     67 N          32.1880   28.4725    8.1846 N.am      11 UNK        -0.7358 
     68 O          34.3579   28.5630    8.6194 O.2       11 UNK        -0.4999 
     69 C69        34.5568   28.5715    5.5056 C.3       12 UNK        -0.0954 
     70 S70        33.9999   26.8394    5.3037 S.3       12 UNK        -0.2268 
     71 C71        32.4326   27.0430    4.4114 C.3       12 UNK         0.0203 
     72 H72        32.7626   26.2194   -5.3762 H         1 UNK         0.0888 
     73 H73        31.9142   24.6971   -5.6530 H         1 UNK         0.0888 
     74 H74        31.1786   26.2200   -6.1568 H         1 UNK         0.0888 
     75 H75        30.9418   23.8886   -3.8059 H         1 UNK         0.3017 
     76 H76        30.5495   25.4981   -1.4425 H         1 UNK         0.0873 
     77 H77        31.2691   23.0279   -1.4703 H         1 UNK         0.0745 
     78 H78        29.6423   22.6075   -1.9212 H         1 UNK         0.0745 
     79 H79        31.6529   22.2589    1.2616 H         1 UNK         0.0705 
     80 H80        32.0999   23.8209    0.6100 H         1 UNK         0.0705 
     81 H81        32.4442   25.6221    2.0934 H         1 UNK         0.1334 
     82 H82        30.9531   25.5110    6.1035 H         1 UNK         0.1417 
     83 H83        30.0018   22.3384    3.3727 H         1 UNK         0.1562 
     84 H84        29.7912   23.5500    6.9179 H         1 UNK         0.0748 
     85 H85        29.7305   22.1080    5.9378 H         1 UNK         0.0748 
     86 H86        28.4765   25.6368    6.2674 H         1 UNK         0.0940 
     87 H87        26.7526   25.5418    6.2598 H         1 UNK         0.0940 
     88 H88        28.0869   25.1582    3.5722 H         1 UNK         0.0703 
     89 H89        26.1312   25.6627    2.7628 H         1 UNK         0.3081 
     90 H90        23.1569   26.6800    3.9448 H         1 UNK         0.0719 
     91 H91        24.6017   28.8929    2.3823 H         1 UNK         0.0809 
     92 H92        22.8547   28.6467    2.4319 H         1 UNK         0.0809 
     93 H93        23.7187   29.1069    3.8869 H         1 UNK         0.0809 
     94 H94        24.2150   26.7503    1.2432 H         1 UNK         0.2990 
     95 H95        24.5905   23.3643    0.7482 H         1 UNK         0.0690 
     96 H96        22.8172   23.3946   -0.9860 H         1 UNK         0.0788 
     97 H97        22.0895   24.8285   -0.2586 H         1 UNK         0.0788 
     98 H98        22.0909   23.2990    0.6081 H         1 UNK         0.0788 
     99 H99        24.3490   25.3478   -1.2145 H         1 UNK         0.2993 
    100 H100       26.1612   26.1616   -2.2306 H         1 UNK         0.0949 
    101 H101       27.0172   28.1111   -0.0162 H         1 UNK         0.0767 
    102 H102       27.0117   28.4804   -1.7387 H         1 UNK         0.0767 
    103 H103       25.4993   28.1591   -0.9038 H         1 UNK         0.0767 
    104 H104       28.7172   26.4312   -0.7162 H         1 UNK         0.3013 
    105 H105       28.4261   26.8711    2.0595 H         1 UNK         0.3121 
    106 H106       30.3309   28.7463    3.1751 H         1 UNK         0.0774 
    107 H107       28.0108   29.7227    1.3991 H         1 UNK         0.0815 
    108 H108       29.4180   30.6746    1.8458 H         1 UNK         0.0815 
    109 H109       28.2728   30.1788    3.0808 H         1 UNK         0.0815 
    110 H110       31.8196   29.4151    1.5296 H         1 UNK         0.2987 
    111 H111       31.6445   28.4150   -1.1829 H         1 UNK         0.0949 
    112 H112       33.7016   27.1208    0.7089 H         1 UNK         0.0806 
    113 H113       32.4433   26.3037   -0.2093 H         1 UNK         0.0806 
    114 H114       33.7815   27.0553   -1.0512 H         1 UNK         0.0806 
    115 H115       34.6526   28.8849    0.5821 H         1 UNK         0.3010 
    116 H116       35.1941   31.5139   -0.6233 H         1 UNK         0.0829 
    117 H117       37.3380   31.2908    0.6358 H         1 UNK         0.0813 
    118 H118       36.7731   29.7990    1.3749 H         1 UNK         0.0813 
    119 H119       37.0458   29.8781   -0.3655 H         1 UNK         0.0813 
    120 H120       33.0858   32.1578    0.3214 H         1 UNK         0.3038 
    121 H121       31.7743   33.3674    1.6333 H         1 UNK         0.0769 
    122 H122       34.0024   33.7421    3.7083 H         1 UNK         0.0811 
    123 H123       32.5559   34.7188    3.5051 H         1 UNK         0.0811 
    124 H124       33.8147   34.7695    2.2903 H         1 UNK         0.0811 
    125 H125       31.2324   33.3461    4.3307 H         1 UNK         0.3204 
    126 H126       30.2383   30.6324    4.7860 H         1 UNK         0.0748 
    127 H127       29.1168   31.7126    6.7321 H         1 UNK         0.0771 
    128 H128       29.9492   33.2252    6.3968 H         1 UNK         0.0771 
    129 H129       28.7850   32.5776    5.2411 H         1 UNK         0.0771 
    130 H130       32.4226   29.7439    4.8137 H         1 UNK         0.2980 
    131 H131       34.3521   30.3212    6.7106 H         1 UNK         0.0545 
    132 H132       31.4215   28.6659    7.5615 H         1 UNK         0.3459 
    133 H133       32.0171   28.0431    9.0797 H         1 UNK         0.3459 
    134 H134       35.5823   28.5241    5.8756 H         1 UNK         0.0616 
    135 H135       34.6314   29.0345    4.5197 H         1 UNK         0.0616 
    136 H136       31.7451   27.6439    5.0060 H         1 UNK         0.0634 
    137 H137       32.6122   27.5891    3.4839 H         1 UNK         0.0634 
@<TRIPOS>BOND
     1    1    2 1    
     2    1   72 1    
     3    1   73 1    
     4    1   74 1    
     5    2    3 2    
     6    2    4 am   BACKBONE|DICT|INTERRES
     7    4    5 1    
     8    4   75 1    
     9    5    6 1    
    10    5   35 1    
    11    5   76 1    
    12    6    7 1    
    13    6   77 1    
    14    6   78 1    
    15    7    8 1    
    16    8    9 1    
    17    8   79 1    
    18    8   80 1    
    19    9   10 ar   
    20    9   14 ar   
    21   10   11 ar   
    22   10   81 1    
    23   11   12 ar   
    24   11   71 1    
    25   12   13 ar   
    26   12   82 1    
    27   13   14 ar   
    28   13   15 1    
    29   14   83 1    
    30   15   16 1    
    31   15   84 1    
    32   15   85 1    
    33   16   17 1    
    34   17   18 1    
    35   17   86 1    
    36   17   87 1    
    37   18   19 1    
    38   18   37 1    
    39   18   88 1    
    40   19   20 am   BACKBONE|DICT|INTERRES
    41   19   89 1    
    42   20   21 2    
    43   20   22 1    
    44   22   23 1    
    45   22   24 1    
    46   22   90 1    
    47   23   91 1    
    48   23   92 1    
    49   23   93 1    
    50   24   25 am   BACKBONE|DICT|INTERRES
    51   24   94 1    
    52   25   26 2    
    53   25   27 1    
    54   27   28 1    
    55   27   29 1    
    56   27   95 1    
    57   28   96 1    
    58   28   97 1    
    59   28   98 1    
    60   29   30 am   BACKBONE|DICT|INTERRES
    61   29   99 1    
    62   30   31 2    
    63   30   32 1    
    64   32   33 1    
    65   32   34 1    
    66   32  100 1    
    67   33  101 1    
    68   33  102 1    
    69   33  103 1    
    70   34   35 am   BACKBONE|DICT|INTERRES
    71   34  104 1    
    72   35   36 2    
    73   37   38 2    
    74   37   39 am   BACKBONE|DICT|INTERRES
    75   39   40 1    
    76   39  105 1    
    77   40   41 1    
    78   40   42 1    
    79   40  106 1    
    80   41  107 1    
    81   41  108 1    
    82   41  109 1    
    83   42   43 2    
    84   42   44 am   BACKBONE|DICT|INTERRES
    85   44   45 1    
    86   44  110 1    
    87   45   46 1    
    88   45   47 1    
    89   45  111 1    
    90   46  112 1    
    91   46  113 1    
    92   46  114 1    
    93   47   48 2    
    94   47   49 am   BACKBONE|DICT|INTERRES
    95   49   50 1    
    96   49  115 1    
    97   50   51 1    
    98   50   52 1    
    99   50  116 1    
   100   51  117 1    
   101   51  118 1    
   102   51  119 1    
   103   52   53 2    
   104   52   54 am   BACKBONE|DICT|INTERRES
   105   54   55 1    
   106   54  120 1    
   107   55   56 1    
   108   55   57 1    
   109   55  121 1    
   110   56  122 1    
   111   56  123 1    
   112   56  124 1    
   113   57   58 2    
   114   57   59 am   BACKBONE|DICT|INTERRES
   115   59   60 1    
   116   59  125 1    
   117   60   61 1    
   118   60   62 1    
   119   60  126 1    
   120   61  127 1    
   121   61  128 1    
   122   61  129 1    
   123   62   63 2    
   124   62   64 am   BACKBONE|DICT|INTERRES
   125   64   65 1    
   126   64  130 1    
   127   65   66 1    
   128   65   69 1    
   129   65  131 1    
   130   66   67 am   BACKBONE|DICT|INTERRES
   131   66   68 2    
   132   67  132 1    
   133   67  133 1    
   134   69   70 1    
   135   69  134 1    
   136   69  135 1    
   137   70   71 1    
   138   71  136 1    
   139   71  137 1    
@<TRIPOS>SUBSTRUCTURE
     1 UNK         1 GROUP             0       ****    0 ROOT    
