@<TRIPOS>MOLECULE
3R136
137   139    1
SMALL
USER_CHARGES


@<TRIPOS>ATOM
      1 CA         26.0557   19.7420   -1.0259 C.3       0 UNK        -0.1979 
      2 C          26.9597   20.9454   -1.2486 C.2       0 UNK         0.4864 
      3 O          27.1333   21.3746   -2.3899 O.2       0 UNK        -0.5359 
      4 N          27.5386   21.4857   -0.1673 N.am      1 UNK        -0.4318 
      5 CA         28.4339   22.6497   -0.1757 C.3       1 UNK         0.0824 
      6 C6         29.1049   22.8647    1.2022 C.3       12 UNK        -0.0944 
      7 S7         30.1626   21.4675    1.7093 S.3       12 UNK        -0.2672 
      8 C8         31.8190   22.2416    1.7485 C.3       12 UNK         0.0333 
      9 C9         32.1499   23.0659    2.9986 C.ar      12 UNK        -0.0807 
     10 C10        33.4953   23.3113    3.2906 C.ar      12 UNK        -0.0894 
     11 C11        33.8628   24.0711    4.4046 C.ar      12 UNK        -0.0804 
     12 C12        32.8683   24.6092    5.2242 C.ar      12 UNK        -0.0824 
     13 C13        31.5153   24.3935    4.9484 C.ar      12 UNK        -0.0762 
     14 C14        31.1682   23.6013    3.8447 C.ar      12 UNK        -0.0782 
     15 C15        30.4836   25.0510    5.8713 C.3       12 UNK         0.0230 
     16 S16        28.7226   24.9200    5.3781 S.3       12 UNK        -0.2608 
     17 C17        28.5211   25.7875    3.7729 C.3       12 UNK        -0.0989 
     18 CA         29.5833   26.8453    3.3586 C.3       5 UNK         0.0716 
     19 N          29.6954   26.9169    1.9038 N.am      5 UNK        -0.4135 
     20 C          30.8027   27.2401    1.2210 C.2       4 UNK         0.5031 
     21 O          31.8831   27.5021    1.7475 O.2       4 UNK        -0.5229 
     22 CA         30.6939   27.2867   -0.3145 C.3       4 UNK         0.0329 
     23 CB         31.2332   25.9849   -0.9277 C.3       4 UNK        -0.2001 
     24 N          29.3261   27.5421   -0.7772 N.am      4 UNK        -0.4303 
     25 C          28.6993   28.7168   -0.5980 C.2       3 UNK         0.5044 
     26 O          29.2586   29.7146   -0.1437 O.2       3 UNK        -0.5152 
     27 CA         27.2006   28.8090   -0.9441 C.3       3 UNK         0.0319 
     28 CB         27.0033   29.5638   -2.2682 C.3       3 UNK        -0.2001 
     29 N          26.4988   27.5233   -1.0161 N.am      3 UNK        -0.4354 
     30 C          26.3701   26.6389   -0.0170 C.2       2 UNK         0.4964 
     31 O          26.8518   26.8021    1.1055 O.2       2 UNK        -0.5047 
     32 CA         25.6305   25.3211   -0.3281 C.3       2 UNK         0.0288 
     33 CB         25.0142   25.2553   -1.7450 C.3       2 UNK        -0.2113 
     34 N          26.4900   24.1528   -0.0988 N.am      2 UNK        -0.4145 
     35 C          27.7129   23.9411   -0.6145 C.2       1 UNK         0.5006 
     36 O          28.2763   24.7151   -1.3911 O.2       1 UNK        -0.5103 
     37 C          29.2873   28.2349    3.9572 C.2       5 UNK         0.5055 
     38 O          29.4016   29.2590    3.2762 O.2       5 UNK        -0.5220 
     39 N          28.8952   28.2461    5.2383 N.am      6 UNK        -0.4450 
     40 CA         28.5693   29.4314    6.0412 C.3       6 UNK         0.0367 
     41 CB         28.3210   28.9915    7.4932 C.3       6 UNK        -0.1929 
     42 C          27.3872   30.2709    5.5149 C.2       6 UNK         0.5070 
     43 O          27.1801   31.3841    5.9978 O.2       6 UNK        -0.5237 
     44 N          26.6524   29.7447    4.5248 N.am      7 UNK        -0.4739 
     45 CA         25.6363   30.4534    3.7479 C.3       7 UNK         0.0276 
     46 CB         24.9343   29.4558    2.8126 C.3       7 UNK        -0.1927 
     47 C          26.1964   31.6410    2.9414 C.2       7 UNK         0.5013 
     48 O          25.4431   32.5826    2.6882 O.2       7 UNK        -0.5193 
     49 N          27.4859   31.5989    2.5698 N.am      8 UNK        -0.4253 
     50 CA         28.1759   32.7126    1.9233 C.3       8 UNK         0.0242 
     51 CB         27.8214   32.8121    0.4247 C.3       8 UNK        -0.2000 
     52 C          29.6864   32.6641    2.1824 C.2       8 UNK         0.4948 
     53 O          30.1796   33.4659    2.9767 O.2       8 UNK        -0.5275 
     54 N          30.4047   31.7767    1.4806 N.am      9 UNK        -0.4246 
     55 CA         31.8695   31.8079    1.3981 C.3       9 UNK         0.0261 
     56 CB         32.3310   31.0018    0.1756 C.3       9 UNK        -0.1959 
     57 C          32.6075   31.3183    2.6543 C.2       9 UNK         0.5033 
     58 O          33.7453   31.7440    2.8658 O.2       9 UNK        -0.5390 
     59 N          31.9898   30.4134    3.4311 N.am      10 UNK        -0.4215 
     60 CA         32.5423   29.7560    4.6289 C.3       10 UNK         0.0240 
     61 CB         32.5645   30.7479    5.8110 C.3       10 UNK        -0.1982 
     62 C          33.9132   29.0885    4.3810 C.2       10 UNK         0.4970 
     63 O          34.8022   29.1885    5.2284 O.2       10 UNK        -0.4916 
     64 N          34.0550   28.4729    3.1977 N.am      11 UNK        -0.4279 
     65 CA         35.2813   27.9429    2.5783 C.3       11 UNK         0.1003 
     66 C          36.5358   28.8716    2.5925 C.2       11 UNK         0.5709 
     67 N          36.3765   30.1890    2.6657 N.am      11 UNK        -0.7358 
     68 O          37.6678   28.4045    2.4879 O.2       11 UNK        -0.4999 
     69 C69        35.5496   26.4452    2.9034 C.3       12 UNK        -0.0954 
     70 S70        35.8125   26.0573    4.6659 S.3       12 UNK        -0.2268 
     71 C71        35.3350   24.2998    4.7280 C.3       12 UNK         0.0203 
     72 H72        25.0468   19.9611   -1.3745 H         1 UNK         0.0888 
     73 H73        26.4302   18.8835   -1.5828 H         1 UNK         0.0888 
     74 H74        25.9978   19.4638    0.0264 H         1 UNK         0.0888 
     75 H75        27.3854   21.0623    0.7371 H         1 UNK         0.3017 
     76 H76        29.2180   22.4576   -0.9116 H         1 UNK         0.0873 
     77 H77        29.6997   23.7802    1.2042 H         1 UNK         0.0745 
     78 H78        28.3427   22.9916    1.9724 H         1 UNK         0.0745 
     79 H79        31.9453   22.8685    0.8646 H         1 UNK         0.0705 
     80 H80        32.5498   21.4367    1.6558 H         1 UNK         0.0705 
     81 H81        34.2634   22.9041    2.6470 H         1 UNK         0.1334 
     82 H82        33.1546   25.2081    6.0785 H         1 UNK         0.1417 
     83 H83        30.1292   23.4070    3.6399 H         1 UNK         0.1562 
     84 H84        30.7389   26.1015    6.0155 H         1 UNK         0.0748 
     85 H85        30.5782   24.5882    6.8547 H         1 UNK         0.0748 
     86 H86        27.5144   26.2099    3.7358 H         1 UNK         0.0940 
     87 H87        28.4953   24.9991    3.0238 H         1 UNK         0.0940 
     88 H88        30.5637   26.5540    3.7284 H         1 UNK         0.0703 
     89 H89        28.8214   26.8231    1.3970 H         1 UNK         0.3081 
     90 H90        31.3236   28.1006   -0.6747 H         1 UNK         0.0719 
     91 H91        32.2914   25.8591   -0.6943 H         1 UNK         0.0809 
     92 H92        30.7155   25.1073   -0.5433 H         1 UNK         0.0809 
     93 H93        31.1376   25.9844   -2.0135 H         1 UNK         0.0809 
     94 H94        28.8116   26.7513   -1.1510 H         1 UNK         0.2990 
     95 H95        26.7311   29.3911   -0.1486 H         1 UNK         0.0690 
     96 H96        25.9469   29.7413   -2.4710 H         1 UNK         0.0788 
     97 H97        27.4215   29.0135   -3.1119 H         1 UNK         0.0788 
     98 H98        27.4928   30.5385   -2.2410 H         1 UNK         0.0788 
     99 H99        26.0986   27.2806   -1.9110 H         1 UNK         0.2993 
    100 H100       24.8147   25.2584    0.3938 H         1 UNK         0.0949 
    101 H101       24.4562   24.3286   -1.8810 H         1 UNK         0.0767 
    102 H102       24.3120   26.0731   -1.9129 H         1 UNK         0.0767 
    103 H103       25.7725   25.2941   -2.5283 H         1 UNK         0.0767 
    104 H104       26.1268   23.4641    0.5446 H         1 UNK         0.3013 
    105 H105       28.7848   27.3530    5.7011 H         1 UNK         0.3121 
    106 H106       29.4437   30.0840    6.0269 H         1 UNK         0.0774 
    107 H107       29.1914   28.4843    7.9100 H         1 UNK         0.0815 
    108 H108       28.1142   29.8505    8.1332 H         1 UNK         0.0815 
    109 H109       27.4678   28.3162    7.5694 H         1 UNK         0.0815 
    110 H110       26.8982   28.8211    4.2023 H         1 UNK         0.2987 
    111 H111       24.8988   30.8519    4.4481 H         1 UNK         0.0949 
    112 H112       24.4668   28.6451    3.3717 H         1 UNK         0.0806 
    113 H113       24.1482   29.9466    2.2371 H         1 UNK         0.0806 
    114 H114       25.6316   29.0146    2.1002 H         1 UNK         0.0806 
    115 H115       28.0570   30.7987    2.8279 H         1 UNK         0.3010 
    116 H116       27.8310   33.6368    2.3933 H         1 UNK         0.0829 
    117 H117       27.9638   31.8691   -0.0974 H         1 UNK         0.0813 
    118 H118       28.4357   33.5615   -0.0759 H         1 UNK         0.0813 
    119 H119       26.7814   33.1069    0.2854 H         1 UNK         0.0813 
    120 H120       29.9255   31.1029    0.8834 H         1 UNK         0.3038 
    121 H121       32.1670   32.8466    1.2377 H         1 UNK         0.0769 
    122 H122       31.8328   31.3318   -0.7361 H         1 UNK         0.0811 
    123 H123       32.1288   29.9409    0.3071 H         1 UNK         0.0811 
    124 H124       33.4052   31.1097    0.0193 H         1 UNK         0.0811 
    125 H125       31.0558   30.1107    3.1584 H         1 UNK         0.3204 
    126 H126       31.8630   28.9464    4.8914 H         1 UNK         0.0748 
    127 H127       33.2853   31.5499    5.6476 H         1 UNK         0.0771 
    128 H128       31.5881   31.2063    5.9653 H         1 UNK         0.0771 
    129 H129       32.8382   30.2459    6.7398 H         1 UNK         0.0771 
    130 H130       33.2234   28.3670    2.6197 H         1 UNK         0.2980 
    131 H131       35.0251   27.9436    1.5183 H         1 UNK         0.0545 
    132 H132       37.1904   30.7822    2.6598 H         1 UNK         0.3459 
    133 H133       35.4540   30.6003    2.7601 H         1 UNK         0.3459 
    134 H134       36.4057   26.0733    2.3385 H         1 UNK         0.0616 
    135 H135       34.6977   25.8666    2.5456 H         1 UNK         0.0616 
    136 H136       35.5398   23.9175    5.7288 H         1 UNK         0.0634 
    137 H137       35.9766   23.7375    4.0479 H         1 UNK         0.0634 
@<TRIPOS>BOND
     1    1    2 1    
     2    1   72 1    
     3    1   73 1    
     4    1   74 1    
     5    2    3 2    
     6    2    4 am   BACKBONE|DICT|INTERRES
     7    4    5 1    
     8    4   75 1    
     9    5    6 1    
    10    5   35 1    
    11    5   76 1    
    12    6    7 1    
    13    6   77 1    
    14    6   78 1    
    15    7    8 1    
    16    8    9 1    
    17    8   79 1    
    18    8   80 1    
    19    9   10 ar   
    20    9   14 ar   
    21   10   11 ar   
    22   10   81 1    
    23   11   12 ar   
    24   11   71 1    
    25   12   13 ar   
    26   12   82 1    
    27   13   14 ar   
    28   13   15 1    
    29   14   83 1    
    30   15   16 1    
    31   15   84 1    
    32   15   85 1    
    33   16   17 1    
    34   17   18 1    
    35   17   86 1    
    36   17   87 1    
    37   18   19 1    
    38   18   37 1    
    39   18   88 1    
    40   19   20 am   BACKBONE|DICT|INTERRES
    41   19   89 1    
    42   20   21 2    
    43   20   22 1    
    44   22   23 1    
    45   22   24 1    
    46   22   90 1    
    47   23   91 1    
    48   23   92 1    
    49   23   93 1    
    50   24   25 am   BACKBONE|DICT|INTERRES
    51   24   94 1    
    52   25   26 2    
    53   25   27 1    
    54   27   28 1    
    55   27   29 1    
    56   27   95 1    
    57   28   96 1    
    58   28   97 1    
    59   28   98 1    
    60   29   30 am   BACKBONE|DICT|INTERRES
    61   29   99 1    
    62   30   31 2    
    63   30   32 1    
    64   32   33 1    
    65   32   34 1    
    66   32  100 1    
    67   33  101 1    
    68   33  102 1    
    69   33  103 1    
    70   34   35 am   BACKBONE|DICT|INTERRES
    71   34  104 1    
    72   35   36 2    
    73   37   38 2    
    74   37   39 am   BACKBONE|DICT|INTERRES
    75   39   40 1    
    76   39  105 1    
    77   40   41 1    
    78   40   42 1    
    79   40  106 1    
    80   41  107 1    
    81   41  108 1    
    82   41  109 1    
    83   42   43 2    
    84   42   44 am   BACKBONE|DICT|INTERRES
    85   44   45 1    
    86   44  110 1    
    87   45   46 1    
    88   45   47 1    
    89   45  111 1    
    90   46  112 1    
    91   46  113 1    
    92   46  114 1    
    93   47   48 2    
    94   47   49 am   BACKBONE|DICT|INTERRES
    95   49   50 1    
    96   49  115 1    
    97   50   51 1    
    98   50   52 1    
    99   50  116 1    
   100   51  117 1    
   101   51  118 1    
   102   51  119 1    
   103   52   53 2    
   104   52   54 am   BACKBONE|DICT|INTERRES
   105   54   55 1    
   106   54  120 1    
   107   55   56 1    
   108   55   57 1    
   109   55  121 1    
   110   56  122 1    
   111   56  123 1    
   112   56  124 1    
   113   57   58 2    
   114   57   59 am   BACKBONE|DICT|INTERRES
   115   59   60 1    
   116   59  125 1    
   117   60   61 1    
   118   60   62 1    
   119   60  126 1    
   120   61  127 1    
   121   61  128 1    
   122   61  129 1    
   123   62   63 2    
   124   62   64 am   BACKBONE|DICT|INTERRES
   125   64   65 1    
   126   64  130 1    
   127   65   66 1    
   128   65   69 1    
   129   65  131 1    
   130   66   67 am   BACKBONE|DICT|INTERRES
   131   66   68 2    
   132   67  132 1    
   133   67  133 1    
   134   69   70 1    
   135   69  134 1    
   136   69  135 1    
   137   70   71 1    
   138   71  136 1    
   139   71  137 1    
@<TRIPOS>SUBSTRUCTURE
     1 UNK         1 GROUP             0       ****    0 ROOT    
