@<TRIPOS>MOLECULE
3R136
137   139    1
SMALL
USER_CHARGES


@<TRIPOS>ATOM
      1 CA         29.6887   24.3583    4.0358 C.3       0 UNK        -0.1979 
      2 C          28.8826   23.3478    3.2374 C.2       0 UNK         0.4864 
      3 O          27.6586   23.3135    3.3634 O.2       0 UNK        -0.5359 
      4 N          29.5491   22.5279    2.4108 N.am      1 UNK        -0.4318 
      5 CA         28.9425   21.4409    1.6243 C.3       1 UNK         0.0824 
      6 C6         29.9914   20.5667    0.8900 C.3       12 UNK        -0.0944 
      7 S7         31.3162   19.9379    1.9776 S.3       12 UNK        -0.2672 
      8 C8         32.7919   20.7443    1.2746 C.3       12 UNK         0.0333 
      9 C9         32.8459   22.2234    1.6267 C.ar      12 UNK        -0.0807 
     10 C10        33.4145   22.6316    2.8378 C.ar      12 UNK        -0.0894 
     11 C11        33.4605   23.9863    3.1789 C.ar      12 UNK        -0.0804 
     12 C12        32.9229   24.9321    2.3009 C.ar      12 UNK        -0.0824 
     13 C13        32.3527   24.5369    1.0887 C.ar      12 UNK        -0.0762 
     14 C14        32.3290   23.1821    0.7482 C.ar      12 UNK        -0.0782 
     15 C15        31.7668   25.5845    0.1575 C.3       12 UNK         0.0230 
     16 S16        30.2507   26.3012    0.8709 S.3       12 UNK        -0.2608 
     17 C17        30.4796   28.0860    0.5610 C.3       12 UNK        -0.0989 
     18 CA         29.3147   28.7066   -0.2520 C.3       5 UNK         0.0716 
     19 N          28.0395   28.5816    0.4596 N.am      5 UNK        -0.4135 
     20 C          26.8320   28.8303   -0.0586 C.2       4 UNK         0.5031 
     21 O          26.6282   29.0707   -1.2506 O.2       4 UNK        -0.5229 
     22 CA         25.6562   28.7388    0.9209 C.3       4 UNK         0.0329 
     23 CB         24.3968   29.4736    0.4256 C.3       4 UNK        -0.2001 
     24 N          25.3587   27.3261    1.1030 N.am      4 UNK        -0.4303 
     25 C          25.0964   26.7116    2.2587 C.2       3 UNK         0.5044 
     26 O          24.9567   27.3006    3.3311 O.2       3 UNK        -0.5152 
     27 CA         24.9836   25.1744    2.2275 C.3       3 UNK         0.0319 
     28 CB         23.5264   24.7245    2.0040 C.3       3 UNK        -0.2001 
     29 N          25.9117   24.5076    1.2972 N.am      3 UNK        -0.4354 
     30 C          25.9239   24.5278   -0.0470 C.2       2 UNK         0.4964 
     31 O          25.0887   25.1319   -0.7202 O.2       2 UNK        -0.5047 
     32 CA         27.0789   23.8193   -0.7814 C.3       2 UNK         0.0288 
     33 CB         27.8462   24.8162   -1.6688 C.3       2 UNK        -0.2113 
     34 N          28.0262   23.1661    0.1241 N.am      2 UNK        -0.4145 
     35 C          27.8774   21.9278    0.6174 C.2       1 UNK         0.5006 
     36 O          26.9436   21.1817    0.3183 O.2       1 UNK        -0.5103 
     37 C          29.6272   30.1833   -0.5816 C.2       5 UNK         0.5055 
     38 O          29.0656   31.0913    0.0356 O.2       5 UNK        -0.5220 
     39 N          30.5685   30.3910   -1.5145 N.am      6 UNK        -0.4450 
     40 CA         31.0601   31.7055   -1.9532 C.3       6 UNK         0.0367 
     41 CB         31.9115   31.5192   -3.2208 C.3       6 UNK        -0.1929 
     42 C          31.8482   32.4952   -0.8850 C.2       6 UNK         0.5070 
     43 O          32.0947   33.6861   -1.0823 O.2       6 UNK        -0.5237 
     44 N          32.2328   31.8301    0.2129 N.am      7 UNK        -0.4739 
     45 CA         32.8048   32.4288    1.4212 C.3       7 UNK         0.0276 
     46 CB         33.6557   31.3584    2.1359 C.3       7 UNK        -0.1927 
     47 C          31.6952   33.0250    2.3181 C.2       7 UNK         0.5013 
     48 O          30.6570   33.4623    1.8166 O.2       7 UNK        -0.5193 
     49 N          31.8943   33.0156    3.6425 N.am      8 UNK        -0.4253 
     50 CA         30.9065   33.4434    4.6404 C.3       8 UNK         0.0242 
     51 CB         31.6473   33.8469    5.9294 C.3       8 UNK        -0.2000 
     52 C          29.8532   32.3428    4.8816 C.2       8 UNK         0.4948 
     53 O          29.7329   31.8421    6.0003 O.2       8 UNK        -0.5275 
     54 N          29.1690   31.9240    3.8057 N.am      9 UNK        -0.4246 
     55 CA         28.2273   30.7980    3.6737 C.3       9 UNK         0.0261 
     56 CB         26.9991   30.9700    4.5871 C.3       9 UNK        -0.1959 
     57 C          28.8562   29.4001    3.8500 C.2       9 UNK         0.5033 
     58 O          28.3698   28.4486    3.2393 O.2       9 UNK        -0.5390 
     59 N          29.9319   29.3004    4.6323 N.am      10 UNK        -0.4215 
     60 CA         30.7660   28.1267    4.8526 C.3       10 UNK         0.0240 
     61 CB         30.1756   27.2900    6.0044 C.3       10 UNK        -0.1982 
     62 C          32.1978   28.6012    5.1525 C.2       10 UNK         0.4970 
     63 O          32.4671   29.8058    5.1253 O.2       10 UNK        -0.4916 
     64 N          33.0908   27.6438    5.4248 N.am      11 UNK        -0.4279 
     65 CA         34.4888   27.8733    5.8224 C.3       11 UNK         0.1003 
     66 C          34.6092   28.6523    7.1617 C.2       11 UNK         0.5709 
     67 N          35.5795   29.5489    7.2750 N.am      11 UNK        -0.7358 
     68 O          33.8607   28.4170    8.1089 O.2       11 UNK        -0.4999 
     69 C69        35.2810   26.5405    5.9030 C.3       12 UNK        -0.0954 
     70 S70        35.3569   25.6741    4.3011 S.3       12 UNK        -0.2268 
     71 C71        34.0439   24.4287    4.5130 C.3       12 UNK         0.0203 
     72 H72        30.7577   24.1709    3.9642 H         1 UNK         0.0888 
     73 H73        29.4872   25.3659    3.6734 H         1 UNK         0.0888 
     74 H74        29.4091   24.3118    5.0877 H         1 UNK         0.0888 
     75 H75        30.5570   22.5935    2.3498 H         1 UNK         0.3017 
     76 H76        28.4215   20.8001    2.3390 H         1 UNK         0.0873 
     77 H77        29.5019   19.6965    0.4479 H         1 UNK         0.0745 
     78 H78        30.4300   21.1086    0.0517 H         1 UNK         0.0745 
     79 H79        33.6810   20.2436    1.6611 H         1 UNK         0.0705 
     80 H80        32.8134   20.6019    0.1929 H         1 UNK         0.0705 
     81 H81        33.8122   21.8904    3.5180 H         1 UNK         0.1334 
     82 H82        32.9402   25.9811    2.5641 H         1 UNK         0.1417 
     83 H83        31.9008   22.8755   -0.1961 H         1 UNK         0.1562 
     84 H84        31.5319   25.1587   -0.8192 H         1 UNK         0.0748 
     85 H85        32.5259   26.3475   -0.0152 H         1 UNK         0.0748 
     86 H86        31.4283   28.2442    0.0474 H         1 UNK         0.0940 
     87 H87        30.5840   28.5842    1.5262 H         1 UNK         0.0940 
     88 H88        29.2207   28.1682   -1.1976 H         1 UNK         0.0703 
     89 H89        28.1120   28.3867    1.4581 H         1 UNK         0.3081 
     90 H90        25.9709   29.1866    1.8660 H         1 UNK         0.0719 
     91 H91        24.0171   29.0465   -0.5034 H         1 UNK         0.0809 
     92 H92        23.5975   29.4272    1.1654 H         1 UNK         0.0809 
     93 H93        24.6090   30.5273    0.2406 H         1 UNK         0.0809 
     94 H94        25.4113   26.7460    0.2700 H         1 UNK         0.2990 
     95 H95        25.2796   24.8283    3.2191 H         1 UNK         0.0690 
     96 H96        22.8745   25.1277    2.7800 H         1 UNK         0.0788 
     97 H97        23.4374   23.6387    2.0377 H         1 UNK         0.0788 
     98 H98        23.1334   25.0651    1.0458 H         1 UNK         0.0788 
     99 H99        26.6552   24.0011    1.7692 H         1 UNK         0.2993 
    100 H100       26.6307   23.0655   -1.4325 H         1 UNK         0.0949 
    101 H101       28.6956   24.3431   -2.1620 H         1 UNK         0.0767 
    102 H102       27.2013   25.2167   -2.4521 H         1 UNK         0.0767 
    103 H103       28.2174   25.6654   -1.0958 H         1 UNK         0.0767 
    104 H104       28.8116   23.7194    0.4375 H         1 UNK         0.3013 
    105 H105       30.9810   29.5905   -1.9727 H         1 UNK         0.3121 
    106 H106       30.1902   32.3123   -2.2136 H         1 UNK         0.0774 
    107 H107       32.2600   32.4799   -3.6028 H         1 UNK         0.0815 
    108 H108       32.7936   30.9074   -3.0282 H         1 UNK         0.0815 
    109 H109       31.3395   31.0464   -4.0193 H         1 UNK         0.0815 
    110 H110       31.9655   30.8609    0.2795 H         1 UNK         0.2987 
    111 H111       33.4613   33.2524    1.1321 H         1 UNK         0.0949 
    112 H112       33.0416   30.5434    2.5219 H         1 UNK         0.0806 
    113 H113       34.3911   30.9243    1.4581 H         1 UNK         0.0806 
    114 H114       34.2150   31.7787    2.9724 H         1 UNK         0.0806 
    115 H115       32.7369   32.5891    4.0015 H         1 UNK         0.3010 
    116 H116       30.3778   34.3250    4.2709 H         1 UNK         0.0829 
    117 H117       32.3533   34.6567    5.7448 H         1 UNK         0.0813 
    118 H118       30.9471   34.1966    6.6893 H         1 UNK         0.0813 
    119 H119       32.2007   33.0090    6.3561 H         1 UNK         0.0813 
    120 H120       29.3997   32.3894    2.9308 H         1 UNK         0.3038 
    121 H121       27.8748   30.8424    2.6420 H         1 UNK         0.0769 
    122 H122       27.2646   30.9171    5.6432 H         1 UNK         0.0811 
    123 H123       26.2653   30.1843    4.4001 H         1 UNK         0.0811 
    124 H124       26.5042   31.9250    4.4114 H         1 UNK         0.0811 
    125 H125       30.2567   30.1418    5.1022 H         1 UNK         0.3204 
    126 H126       30.7955   27.5293    3.9390 H         1 UNK         0.0748 
    127 H127       30.7369   26.3691    6.1631 H         1 UNK         0.0771 
    128 H128       30.1806   27.8440    6.9441 H         1 UNK         0.0771 
    129 H129       29.1449   27.0029    5.7945 H         1 UNK         0.0771 
    130 H130       32.7833   26.6856    5.4510 H         1 UNK         0.2980 
    131 H131       34.9403   28.4876    5.0405 H         1 UNK         0.0545 
    132 H132       35.6821   30.0515    8.1426 H         1 UNK         0.3459 
    133 H133       36.2073   29.7386    6.5094 H         1 UNK         0.3459 
    134 H134       36.3109   26.7322    6.2098 H         1 UNK         0.0616 
    135 H135       34.8592   25.8789    6.6622 H         1 UNK         0.0616 
    136 H136       34.4535   23.5808    5.0642 H         1 UNK         0.0634 
    137 H137       33.2349   24.8313    5.1222 H         1 UNK         0.0634 
@<TRIPOS>BOND
     1    1    2 1    
     2    1   72 1    
     3    1   73 1    
     4    1   74 1    
     5    2    3 2    
     6    2    4 am   BACKBONE|DICT|INTERRES
     7    4    5 1    
     8    4   75 1    
     9    5    6 1    
    10    5   35 1    
    11    5   76 1    
    12    6    7 1    
    13    6   77 1    
    14    6   78 1    
    15    7    8 1    
    16    8    9 1    
    17    8   79 1    
    18    8   80 1    
    19    9   10 ar   
    20    9   14 ar   
    21   10   11 ar   
    22   10   81 1    
    23   11   12 ar   
    24   11   71 1    
    25   12   13 ar   
    26   12   82 1    
    27   13   14 ar   
    28   13   15 1    
    29   14   83 1    
    30   15   16 1    
    31   15   84 1    
    32   15   85 1    
    33   16   17 1    
    34   17   18 1    
    35   17   86 1    
    36   17   87 1    
    37   18   19 1    
    38   18   37 1    
    39   18   88 1    
    40   19   20 am   BACKBONE|DICT|INTERRES
    41   19   89 1    
    42   20   21 2    
    43   20   22 1    
    44   22   23 1    
    45   22   24 1    
    46   22   90 1    
    47   23   91 1    
    48   23   92 1    
    49   23   93 1    
    50   24   25 am   BACKBONE|DICT|INTERRES
    51   24   94 1    
    52   25   26 2    
    53   25   27 1    
    54   27   28 1    
    55   27   29 1    
    56   27   95 1    
    57   28   96 1    
    58   28   97 1    
    59   28   98 1    
    60   29   30 am   BACKBONE|DICT|INTERRES
    61   29   99 1    
    62   30   31 2    
    63   30   32 1    
    64   32   33 1    
    65   32   34 1    
    66   32  100 1    
    67   33  101 1    
    68   33  102 1    
    69   33  103 1    
    70   34   35 am   BACKBONE|DICT|INTERRES
    71   34  104 1    
    72   35   36 2    
    73   37   38 2    
    74   37   39 am   BACKBONE|DICT|INTERRES
    75   39   40 1    
    76   39  105 1    
    77   40   41 1    
    78   40   42 1    
    79   40  106 1    
    80   41  107 1    
    81   41  108 1    
    82   41  109 1    
    83   42   43 2    
    84   42   44 am   BACKBONE|DICT|INTERRES
    85   44   45 1    
    86   44  110 1    
    87   45   46 1    
    88   45   47 1    
    89   45  111 1    
    90   46  112 1    
    91   46  113 1    
    92   46  114 1    
    93   47   48 2    
    94   47   49 am   BACKBONE|DICT|INTERRES
    95   49   50 1    
    96   49  115 1    
    97   50   51 1    
    98   50   52 1    
    99   50  116 1    
   100   51  117 1    
   101   51  118 1    
   102   51  119 1    
   103   52   53 2    
   104   52   54 am   BACKBONE|DICT|INTERRES
   105   54   55 1    
   106   54  120 1    
   107   55   56 1    
   108   55   57 1    
   109   55  121 1    
   110   56  122 1    
   111   56  123 1    
   112   56  124 1    
   113   57   58 2    
   114   57   59 am   BACKBONE|DICT|INTERRES
   115   59   60 1    
   116   59  125 1    
   117   60   61 1    
   118   60   62 1    
   119   60  126 1    
   120   61  127 1    
   121   61  128 1    
   122   61  129 1    
   123   62   63 2    
   124   62   64 am   BACKBONE|DICT|INTERRES
   125   64   65 1    
   126   64  130 1    
   127   65   66 1    
   128   65   69 1    
   129   65  131 1    
   130   66   67 am   BACKBONE|DICT|INTERRES
   131   66   68 2    
   132   67  132 1    
   133   67  133 1    
   134   69   70 1    
   135   69  134 1    
   136   69  135 1    
   137   70   71 1    
   138   71  136 1    
   139   71  137 1    
@<TRIPOS>SUBSTRUCTURE
     1 UNK         1 GROUP             0       ****    0 ROOT    
