@<TRIPOS>MOLECULE
3R136
137   139    1
SMALL
USER_CHARGES


@<TRIPOS>ATOM
      1 CA         29.9602   19.9383   -1.6606 C.3       0 UNK        -0.1979 
      2 C          30.6718   21.2538   -1.3804 C.2       0 UNK         0.4864 
      3 O          31.8358   21.2455   -0.9769 O.2       0 UNK        -0.5359 
      4 N          29.9834   22.3790   -1.5937 N.am      1 UNK        -0.4318 
      5 CA         30.4840   23.7386   -1.3971 C.3       1 UNK         0.0824 
      6 C6         30.6279   24.1327    0.0991 C.3       12 UNK        -0.0944 
      7 S7         29.0874   24.0052    1.0792 S.3       12 UNK        -0.2672 
      8 C8         29.5217   22.7009    2.2755 C.3       12 UNK         0.0333 
      9 C9         30.2815   23.2588    3.4728 C.ar      12 UNK        -0.0807 
     10 C10        31.6647   23.4563    3.4082 C.ar      12 UNK        -0.0894 
     11 C11        32.3623   23.9819    4.4983 C.ar      12 UNK        -0.0804 
     12 C12        31.6723   24.2803    5.6759 C.ar      12 UNK        -0.0824 
     13 C13        30.2930   24.0720    5.7619 C.ar      12 UNK        -0.0762 
     14 C14        29.6014   23.5662    4.6559 C.ar      12 UNK        -0.0782 
     15 C15        29.5627   24.3829    7.0593 C.3       12 UNK         0.0230 
     16 S16        29.0744   26.1336    7.1538 S.3       12 UNK        -0.2608 
     17 C17        27.6078   26.1756    6.0687 C.3       12 UNK        -0.0989 
     18 CA         27.8534   26.9016    4.7196 C.3       5 UNK         0.0716 
     19 N          26.8617   26.4728    3.7211 N.am      5 UNK        -0.4135 
     20 C          26.7352   26.9305    2.4684 C.2       4 UNK         0.5031 
     21 O          27.4216   27.8325    1.9886 O.2       4 UNK        -0.5229 
     22 CA         25.5940   26.3302    1.6433 C.3       4 UNK         0.0329 
     23 CB         24.2390   26.8945    2.1197 C.3       4 UNK        -0.2001 
     24 N          25.7952   26.6405    0.2288 N.am      4 UNK        -0.4303 
     25 C          25.1632   26.0505   -0.7906 C.2       3 UNK         0.5044 
     26 O          24.3669   25.1207   -0.6513 O.2       3 UNK        -0.5152 
     27 CA         25.4367   26.5827   -2.2081 C.3       3 UNK         0.0319 
     28 CB         24.7804   27.9607   -2.4310 C.3       3 UNK        -0.2001 
     29 N          26.8506   26.5778   -2.6008 N.am      3 UNK        -0.4354 
     30 C          27.8555   27.3370   -2.1465 C.2       2 UNK         0.4964 
     31 O          27.7414   28.1721   -1.2510 O.2       2 UNK        -0.5047 
     32 CA         29.2287   27.1010   -2.8011 C.3       2 UNK         0.0288 
     33 CB         30.1071   28.3655   -2.7654 C.3       2 UNK        -0.2113 
     34 N          29.9498   26.0060   -2.1530 N.am      2 UNK        -0.4145 
     35 C          29.6092   24.7111   -2.2075 C.2       1 UNK         0.5006 
     36 O          28.6617   24.2784   -2.8734 O.2       1 UNK        -0.5103 
     37 C          27.9164   28.4354    4.9189 C.2       5 UNK         0.5055 
     38 O          29.0064   28.9915    5.0524 O.2       5 UNK        -0.5220 
     39 N          26.7459   29.0910    4.9194 N.am      6 UNK        -0.4450 
     40 CA         26.6098   30.5425    5.0672 C.3       6 UNK         0.0367 
     41 CB         25.1508   30.8788    5.4161 C.3       6 UNK        -0.1929 
     42 C          27.0582   31.3356    3.8257 C.2       6 UNK         0.5070 
     43 O          27.4731   32.4859    3.9695 O.2       6 UNK        -0.5237 
     44 N          26.9532   30.7270    2.6374 N.am      7 UNK        -0.4739 
     45 CA         27.3650   31.3204    1.3640 C.3       7 UNK         0.0276 
     46 CB         26.4372   30.8185    0.2473 C.3       7 UNK        -0.1927 
     47 C          28.8397   31.0204    1.0525 C.2       7 UNK         0.5013 
     48 O          29.5372   31.8924    0.5308 O.2       7 UNK        -0.5193 
     49 N          29.3086   29.8203    1.4196 N.am      8 UNK        -0.4253 
     50 CA         30.6955   29.3602    1.3279 C.3       8 UNK         0.0242 
     51 CB         30.7067   27.8225    1.4149 C.3       8 UNK        -0.2000 
     52 C          31.5944   30.0173    2.3948 C.2       8 UNK         0.4948 
     53 O          32.1908   29.3236    3.2196 O.2       8 UNK        -0.5275 
     54 N          31.6907   31.3536    2.3466 N.am      9 UNK        -0.4246 
     55 CA         32.3911   32.2199    3.3034 C.3       9 UNK         0.0261 
     56 CB         32.2183   33.6846    2.8723 C.3       9 UNK        -0.1959 
     57 C          33.8804   31.8947    3.5212 C.2       9 UNK         0.5033 
     58 O          34.4098   32.2028    4.5900 O.2       9 UNK        -0.5390 
     59 N          34.5182   31.2416    2.5391 N.am      10 UNK        -0.4215 
     60 CA         35.8776   30.6986    2.6222 C.3       10 UNK         0.0240 
     61 CB         36.2652   30.1006    1.2601 C.3       10 UNK        -0.1982 
     62 C          36.0685   29.6543    3.7413 C.2       10 UNK         0.4970 
     63 O          37.1872   29.5152    4.2376 O.2       10 UNK        -0.4916 
     64 N          34.9890   28.9627    4.1320 N.am      11 UNK        -0.4279 
     65 CA         34.9530   28.0569    5.2895 C.3       11 UNK         0.1003 
     66 C          34.8120   28.7875    6.6589 C.2       11 UNK         0.5709 
     67 N          34.6466   30.1049    6.7154 N.am      11 UNK        -0.7358 
     68 O          34.8737   28.1428    7.7033 O.2       11 UNK        -0.4999 
     69 C69        33.8704   26.9597    5.1170 C.3       12 UNK        -0.0954 
     70 S70        34.2116   25.8703    3.6922 S.3       12 UNK        -0.2268 
     71 C71        33.8601   24.2275    4.3940 C.3       12 UNK         0.0203 
     72 H72        29.9493   19.3186   -0.7620 H         1 UNK         0.0888 
     73 H73        28.9275   20.0939   -1.9781 H         1 UNK         0.0888 
     74 H74        30.4807   19.3908   -2.4482 H         1 UNK         0.0888 
     75 H75        29.0463   22.3514   -1.9776 H         1 UNK         0.3017 
     76 H76        31.4749   23.7868   -1.8543 H         1 UNK         0.0873 
     77 H77        31.3915   23.4951    0.5380 H         1 UNK         0.0745 
     78 H78        31.0202   25.1437    0.2056 H         1 UNK         0.0745 
     79 H79        28.6012   22.2206    2.6105 H         1 UNK         0.0705 
     80 H80        30.1044   21.9201    1.7843 H         1 UNK         0.0705 
     81 H81        32.2085   23.2101    2.5088 H         1 UNK         0.1334 
     82 H82        32.2065   24.6788    6.5273 H         1 UNK         0.1417 
     83 H83        28.5339   23.4062    4.7161 H         1 UNK         0.1562 
     84 H84        30.2135   24.1586    7.9059 H         1 UNK         0.0748 
     85 H85        28.6888   23.7404    7.1779 H         1 UNK         0.0748 
     86 H86        26.7839   26.6359    6.6181 H         1 UNK         0.0940 
     87 H87        27.2878   25.1485    5.8910 H         1 UNK         0.0940 
     88 H88        28.8240   26.5877    4.3283 H         1 UNK         0.0703 
     89 H89        26.2279   25.7463    4.0196 H         1 UNK         0.3081 
     90 H90        25.6133   25.2458    1.7714 H         1 UNK         0.0719 
     91 H91        24.1856   27.9756    1.9827 H         1 UNK         0.0809 
     92 H92        23.4055   26.4503    1.5756 H         1 UNK         0.0809 
     93 H93        24.0693   26.6894    3.1772 H         1 UNK         0.0809 
     94 H94        26.4990   27.3506    0.0307 H         1 UNK         0.2990 
     95 H95        24.9512   25.8873   -2.8950 H         1 UNK         0.0690 
     96 H96        24.8979   28.2927   -3.4624 H         1 UNK         0.0788 
     97 H97        25.2022   28.7287   -1.7826 H         1 UNK         0.0788 
     98 H98        23.7103   27.9179   -2.2240 H         1 UNK         0.0788 
     99 H99        27.1056   25.8407   -3.2477 H         1 UNK         0.2993 
    100 H100       29.0657   26.8381   -3.8489 H         1 UNK         0.0949 
    101 H101       29.5974   29.2060   -3.2385 H         1 UNK         0.0767 
    102 H102       30.3453   28.6650   -1.7445 H         1 UNK         0.0767 
    103 H103       31.0454   28.2138   -3.2992 H         1 UNK         0.0767 
    104 H104       30.7352   26.2748   -1.5797 H         1 UNK         0.3013 
    105 H105       25.8945   28.5610    4.8052 H         1 UNK         0.3121 
    106 H106       27.2400   30.8591    5.9014 H         1 UNK         0.0774 
    107 H107       25.0230   31.9525    5.5615 H         1 UNK         0.0815 
    108 H108       24.4646   30.5743    4.6248 H         1 UNK         0.0815 
    109 H109       24.8396   30.3904    6.3397 H         1 UNK         0.0815 
    110 H110       26.6825   29.7520    2.6116 H         1 UNK         0.2987 
    111 H111       27.2618   32.4068    1.4156 H         1 UNK         0.0949 
    112 H112       26.3636   29.7320    0.2453 H         1 UNK         0.0806 
    113 H113       25.4294   31.2164    0.3649 H         1 UNK         0.0806 
    114 H114       26.7968   31.1257   -0.7358 H         1 UNK         0.0806 
    115 H115       28.6411   29.1420    1.7827 H         1 UNK         0.3010 
    116 H116       31.0890   29.6459    0.3509 H         1 UNK         0.0829 
    117 H117       30.0716   27.3801    0.6472 H         1 UNK         0.0813 
    118 H118       31.7145   27.4269    1.2824 H         1 UNK         0.0813 
    119 H119       30.3440   27.4728    2.3827 H         1 UNK         0.0813 
    120 H120       31.1289   31.8198    1.6389 H         1 UNK         0.3038 
    121 H121       31.8962   32.0876    4.2673 H         1 UNK         0.0769 
    122 H122       32.6582   33.8707    1.8920 H         1 UNK         0.0811 
    123 H123       32.6997   34.3606    3.5805 H         1 UNK         0.0811 
    124 H124       31.1652   33.9631    2.8263 H         1 UNK         0.0811 
    125 H125       33.9954   31.0313    1.7018 H         1 UNK         0.3204 
    126 H126       36.5502   31.5313    2.8374 H         1 UNK         0.0748 
    127 H127       36.2214   30.8497    0.4692 H         1 UNK         0.0771 
    128 H128       37.2849   29.7131    1.2800 H         1 UNK         0.0771 
    129 H129       35.6088   29.2752    0.9806 H         1 UNK         0.0771 
    130 H130       34.0903   29.1374    3.6909 H         1 UNK         0.2980 
    131 H131       35.9163   27.5458    5.3411 H         1 UNK         0.0545 
    132 H132       34.5670   30.5466    7.6171 H         1 UNK         0.3459 
    133 H133       34.6075   30.6723    5.8760 H         1 UNK         0.3459 
    134 H134       32.8811   27.4029    4.9908 H         1 UNK         0.0616 
    135 H135       33.8148   26.3463    6.0169 H         1 UNK         0.0616 
    136 H136       34.3131   23.4703    3.7524 H         1 UNK         0.0634 
    137 H137       34.3404   24.1249    5.3682 H         1 UNK         0.0634 
@<TRIPOS>BOND
     1    1    2 1    
     2    1   72 1    
     3    1   73 1    
     4    1   74 1    
     5    2    3 2    
     6    2    4 am   BACKBONE|DICT|INTERRES
     7    4    5 1    
     8    4   75 1    
     9    5    6 1    
    10    5   35 1    
    11    5   76 1    
    12    6    7 1    
    13    6   77 1    
    14    6   78 1    
    15    7    8 1    
    16    8    9 1    
    17    8   79 1    
    18    8   80 1    
    19    9   10 ar   
    20    9   14 ar   
    21   10   11 ar   
    22   10   81 1    
    23   11   12 ar   
    24   11   71 1    
    25   12   13 ar   
    26   12   82 1    
    27   13   14 ar   
    28   13   15 1    
    29   14   83 1    
    30   15   16 1    
    31   15   84 1    
    32   15   85 1    
    33   16   17 1    
    34   17   18 1    
    35   17   86 1    
    36   17   87 1    
    37   18   19 1    
    38   18   37 1    
    39   18   88 1    
    40   19   20 am   BACKBONE|DICT|INTERRES
    41   19   89 1    
    42   20   21 2    
    43   20   22 1    
    44   22   23 1    
    45   22   24 1    
    46   22   90 1    
    47   23   91 1    
    48   23   92 1    
    49   23   93 1    
    50   24   25 am   BACKBONE|DICT|INTERRES
    51   24   94 1    
    52   25   26 2    
    53   25   27 1    
    54   27   28 1    
    55   27   29 1    
    56   27   95 1    
    57   28   96 1    
    58   28   97 1    
    59   28   98 1    
    60   29   30 am   BACKBONE|DICT|INTERRES
    61   29   99 1    
    62   30   31 2    
    63   30   32 1    
    64   32   33 1    
    65   32   34 1    
    66   32  100 1    
    67   33  101 1    
    68   33  102 1    
    69   33  103 1    
    70   34   35 am   BACKBONE|DICT|INTERRES
    71   34  104 1    
    72   35   36 2    
    73   37   38 2    
    74   37   39 am   BACKBONE|DICT|INTERRES
    75   39   40 1    
    76   39  105 1    
    77   40   41 1    
    78   40   42 1    
    79   40  106 1    
    80   41  107 1    
    81   41  108 1    
    82   41  109 1    
    83   42   43 2    
    84   42   44 am   BACKBONE|DICT|INTERRES
    85   44   45 1    
    86   44  110 1    
    87   45   46 1    
    88   45   47 1    
    89   45  111 1    
    90   46  112 1    
    91   46  113 1    
    92   46  114 1    
    93   47   48 2    
    94   47   49 am   BACKBONE|DICT|INTERRES
    95   49   50 1    
    96   49  115 1    
    97   50   51 1    
    98   50   52 1    
    99   50  116 1    
   100   51  117 1    
   101   51  118 1    
   102   51  119 1    
   103   52   53 2    
   104   52   54 am   BACKBONE|DICT|INTERRES
   105   54   55 1    
   106   54  120 1    
   107   55   56 1    
   108   55   57 1    
   109   55  121 1    
   110   56  122 1    
   111   56  123 1    
   112   56  124 1    
   113   57   58 2    
   114   57   59 am   BACKBONE|DICT|INTERRES
   115   59   60 1    
   116   59  125 1    
   117   60   61 1    
   118   60   62 1    
   119   60  126 1    
   120   61  127 1    
   121   61  128 1    
   122   61  129 1    
   123   62   63 2    
   124   62   64 am   BACKBONE|DICT|INTERRES
   125   64   65 1    
   126   64  130 1    
   127   65   66 1    
   128   65   69 1    
   129   65  131 1    
   130   66   67 am   BACKBONE|DICT|INTERRES
   131   66   68 2    
   132   67  132 1    
   133   67  133 1    
   134   69   70 1    
   135   69  134 1    
   136   69  135 1    
   137   70   71 1    
   138   71  136 1    
   139   71  137 1    
@<TRIPOS>SUBSTRUCTURE
     1 UNK         1 GROUP             0       ****    0 ROOT    
