@<TRIPOS>MOLECULE
3R136
137   139    1
SMALL
USER_CHARGES


@<TRIPOS>ATOM
      1 CA         31.6866   23.7687   -1.2389 C.3       0 UNK        -0.1979 
      2 C          30.7190   24.2238   -0.1574 C.2       0 UNK         0.4864 
      3 O          30.4355   25.4181   -0.0606 O.2       0 UNK        -0.5359 
      4 N          30.2267   23.2786    0.6527 N.am      1 UNK        -0.4318 
      5 CA         29.2449   23.4952    1.7160 C.3       1 UNK         0.0824 
      6 C6         29.5886   22.6307    2.9619 C.3       12 UNK        -0.0944 
      7 S7         28.7191   23.1798    4.4710 S.3       12 UNK        -0.2672 
      8 C8         29.9904   24.2008    5.2825 C.3       12 UNK         0.0333 
      9 C9         30.3013   25.4514    4.4749 C.ar      12 UNK        -0.0807 
     10 C10        31.4337   25.5013    3.6584 C.ar      12 UNK        -0.0894 
     11 C11        31.7206   26.6441    2.9064 C.ar      12 UNK        -0.0804 
     12 C12        30.8657   27.7496    2.9847 C.ar      12 UNK        -0.0824 
     13 C13        29.7132   27.6998    3.7779 C.ar      12 UNK        -0.0762 
     14 C14        29.4411   26.5502    4.5250 C.ar      12 UNK        -0.0782 
     15 C15        28.7584   28.8825    3.8489 C.3       12 UNK         0.0230 
     16 S16        27.3092   28.6400    2.7654 S.3       12 UNK        -0.2608 
     17 C17        27.9343   29.2879    1.1807 C.3       12 UNK        -0.0989 
     18 CA         28.5128   28.1732    0.2704 C.3       5 UNK         0.0716 
     19 N          27.4914   27.2838   -0.2882 N.am      5 UNK        -0.4135 
     20 C          26.5125   27.5955   -1.1518 C.2       4 UNK         0.5031 
     21 O          26.3470   28.7023   -1.6644 O.2       4 UNK        -0.5229 
     22 CA         25.5071   26.4770   -1.4609 C.3       4 UNK         0.0329 
     23 CB         26.0664   25.5071   -2.5152 C.3       4 UNK        -0.2001 
     24 N          25.1585   25.7448   -0.2428 N.am      4 UNK        -0.4303 
     25 C          24.2729   26.1684    0.6727 C.2       3 UNK         0.5044 
     26 O          23.5856   27.1804    0.5254 O.2       3 UNK        -0.5152 
     27 CA         24.1388   25.3623    1.9855 C.3       3 UNK         0.0319 
     28 CB         22.6654   25.1657    2.4018 C.3       3 UNK        -0.2001 
     29 N          24.8689   24.0872    1.9966 N.am      3 UNK        -0.4354 
     30 C          24.6601   23.0124    1.2199 C.2       2 UNK         0.4964 
     31 O          23.7116   22.9029    0.4417 O.2       2 UNK        -0.5047 
     32 CA         25.7191   21.8914    1.2952 C.3       2 UNK         0.0288 
     33 CB         25.8217   21.0992   -0.0261 C.3       2 UNK        -0.2113 
     34 N          27.0580   22.3425    1.7117 N.am      2 UNK        -0.4145 
     35 C          27.8282   23.2830    1.1382 C.2       1 UNK         0.5006 
     36 O          27.4511   23.9901    0.2008 O.2       1 UNK        -0.5103 
     37 C          29.4453   28.7452   -0.8154 C.2       5 UNK         0.5055 
     38 O          29.2012   29.8315   -1.3444 O.2       5 UNK        -0.5220 
     39 N          30.5279   28.0109   -1.0998 N.am      6 UNK        -0.4450 
     40 CA         31.6064   28.4098   -2.0125 C.3       6 UNK         0.0367 
     41 CB         32.4995   27.1906   -2.2923 C.3       6 UNK        -0.1929 
     42 C          32.4585   29.6021   -1.5245 C.2       6 UNK         0.5070 
     43 O          33.2203   30.1527   -2.3205 O.2       6 UNK        -0.5237 
     44 N          32.3269   29.9831   -0.2488 N.am      7 UNK        -0.4739 
     45 CA         32.9457   31.1566    0.3635 C.3       7 UNK         0.0276 
     46 CB         34.1240   30.7111    1.2439 C.3       7 UNK        -0.1927 
     47 C          31.8906   31.8878    1.2031 C.2       7 UNK         0.5013 
     48 O          30.8663   31.2974    1.5507 O.2       7 UNK        -0.5193 
     49 N          32.1711   33.1543    1.5353 N.am      8 UNK        -0.4253 
     50 CA         31.2814   34.0476    2.2893 C.3       8 UNK         0.0242 
     51 CB         31.7685   35.4958    2.1053 C.3       8 UNK        -0.2000 
     52 C          31.1345   33.7129    3.7890 C.2       8 UNK         0.4948 
     53 O          30.3016   34.3285    4.4566 O.2       8 UNK        -0.5275 
     54 N          31.9340   32.7707    4.2979 N.am      9 UNK        -0.4246 
     55 CA         31.8943   32.2520    5.6615 C.3       9 UNK         0.0261 
     56 CB         33.0288   32.8912    6.4810 C.3       9 UNK        -0.1959 
     57 C          32.0507   30.7287    5.5953 C.2       9 UNK         0.5033 
     58 O          32.5132   30.2126    4.5750 O.2       9 UNK        -0.5390 
     59 N          31.6682   30.0425    6.6807 N.am      10 UNK        -0.4215 
     60 CA         31.7412   28.5863    6.8176 C.3       10 UNK         0.0240 
     61 CB         31.0578   28.1523    8.1248 C.3       10 UNK        -0.1982 
     62 C          33.1872   28.0704    6.7443 C.2       10 UNK         0.4970 
     63 O          33.9973   28.4092    7.6101 O.2       10 UNK        -0.4916 
     64 N          33.4757   27.2833    5.7040 N.am      11 UNK        -0.4279 
     65 CA         34.7922   26.6982    5.4248 C.3       11 UNK         0.1003 
     66 C          35.2038   25.6233    6.4667 C.2       11 UNK         0.5709 
     67 N          36.4923   25.5015    6.7558 N.am      11 UNK        -0.7358 
     68 O          34.3751   24.8740    6.9814 O.2       11 UNK        -0.4999 
     69 C69        34.8701   26.1281    3.9840 C.3       12 UNK        -0.0954 
     70 S70        34.4202   27.3611    2.7145 S.3       12 UNK        -0.2268 
     71 C71        32.9187   26.6541    1.9651 C.3       12 UNK         0.0203 
     72 H72        31.2882   24.0129   -2.2230 H         1 UNK         0.0888 
     73 H73        32.6450   24.2730   -1.1206 H         1 UNK         0.0888 
     74 H74        31.8638   22.6940   -1.2031 H         1 UNK         0.0888 
     75 H75        30.4851   22.3157    0.4914 H         1 UNK         0.3017 
     76 H76        29.2864   24.5442    2.0157 H         1 UNK         0.0873 
     77 H77        29.3847   21.5725    2.7888 H         1 UNK         0.0745 
     78 H78        30.6609   22.6775    3.1570 H         1 UNK         0.0745 
     79 H79        29.6348   24.4867    6.2736 H         1 UNK         0.0705 
     80 H80        30.8919   23.6072    5.4432 H         1 UNK         0.0705 
     81 H81        32.0790   24.6370    3.5907 H         1 UNK         0.1334 
     82 H82        31.0869   28.6428    2.4167 H         1 UNK         0.1417 
     83 H83        28.5521   26.5071    5.1399 H         1 UNK         0.1562 
     84 H84        29.2745   29.8124    3.6032 H         1 UNK         0.0748 
     85 H85        28.4091   29.0002    4.8758 H         1 UNK         0.0748 
     86 H86        28.6837   30.0489    1.3947 H         1 UNK         0.0940 
     87 H87        27.1260   29.8196    0.6766 H         1 UNK         0.0940 
     88 H88        29.1298   27.5317    0.8987 H         1 UNK         0.0703 
     89 H89        27.5515   26.3209    0.0172 H         1 UNK         0.3081 
     90 H90        24.6028   26.9334   -1.8696 H         1 UNK         0.0719 
     91 H91        26.2745   26.0298   -3.4497 H         1 UNK         0.0809 
     92 H92        26.9971   25.0404   -2.1912 H         1 UNK         0.0809 
     93 H93        25.3544   24.7125   -2.7390 H         1 UNK         0.0809 
     94 H94        25.7178   24.9226   -0.0385 H         1 UNK         0.2990 
     95 H95        24.6135   25.9768    2.7521 H         1 UNK         0.0690 
     96 H96        22.5874   24.6112    3.3369 H         1 UNK         0.0788 
     97 H97        22.0961   24.6282    1.6431 H         1 UNK         0.0788 
     98 H98        22.1709   26.1257    2.5549 H         1 UNK         0.0788 
     99 H99        25.6786   24.0637    2.6008 H         1 UNK         0.2993 
    100 H100       25.3706   21.2047    2.0683 H         1 UNK         0.0949 
    101 H101       26.1108   21.7417   -0.8589 H         1 UNK         0.0767 
    102 H102       26.5556   20.2967    0.0484 H         1 UNK         0.0767 
    103 H103       24.8679   20.6380   -0.2857 H         1 UNK         0.0767 
    104 H104       27.4400   21.8696    2.5203 H         1 UNK         0.3013 
    105 H105       30.6099   27.0907   -0.6627 H         1 UNK         0.3121 
    106 H106       31.1460   28.7155   -2.9543 H         1 UNK         0.0774 
    107 H107       32.9622   26.8122   -1.3804 H         1 UNK         0.0815 
    108 H108       31.9287   26.3803   -2.7447 H         1 UNK         0.0815 
    109 H109       33.3032   27.4424   -2.9856 H         1 UNK         0.0815 
    110 H110       31.6116   29.5457    0.3147 H         1 UNK         0.2987 
    111 H111       33.3031   31.8403   -0.4098 H         1 UNK         0.0949 
    112 H112       34.8313   30.0979    0.6852 H         1 UNK         0.0806 
    113 H113       34.6740   31.5691    1.6316 H         1 UNK         0.0806 
    114 H114       33.7821   30.1316    2.1019 H         1 UNK         0.0806 
    115 H115       33.0472   33.5530    1.2284 H         1 UNK         0.3010 
    116 H116       30.2832   33.9684    1.8530 H         1 UNK         0.0829 
    117 H117       32.7679   35.6403    2.5176 H         1 UNK         0.0813 
    118 H118       31.7936   35.7769    1.0523 H         1 UNK         0.0813 
    119 H119       31.1046   36.2005    2.6083 H         1 UNK         0.0813 
    120 H120       32.5129   32.2297    3.6684 H         1 UNK         0.3038 
    121 H121       30.9311   32.4777    6.1245 H         1 UNK         0.0769 
    122 H122       32.9269   33.9760    6.5166 H         1 UNK         0.0811 
    123 H123       34.0082   32.6611    6.0594 H         1 UNK         0.0811 
    124 H124       33.0235   32.5319    7.5107 H         1 UNK         0.0811 
    125 H125       31.3350   30.5530    7.4855 H         1 UNK         0.3204 
    126 H126       31.1787   28.1540    5.9924 H         1 UNK         0.0748 
    127 H127       31.5442   28.5859    8.9996 H         1 UNK         0.0771 
    128 H128       30.0083   28.4469    8.1411 H         1 UNK         0.0771 
    129 H129       31.0902   27.0677    8.2375 H         1 UNK         0.0771 
    130 H130       32.7585   27.0882    5.0194 H         1 UNK         0.2980 
    131 H131       35.5142   27.5144    5.4942 H         1 UNK         0.0545 
    132 H132       36.7807   24.7986    7.4183 H         1 UNK         0.3459 
    133 H133       37.1821   26.1009    6.3299 H         1 UNK         0.3459 
    134 H134       34.2470   25.2403    3.8801 H         1 UNK         0.0616 
    135 H135       35.8885   25.8003    3.7683 H         1 UNK         0.0616 
    136 H136       33.1328   25.6447    1.6107 H         1 UNK         0.0634 
    137 H137       32.6726   27.2362    1.0764 H         1 UNK         0.0634 
@<TRIPOS>BOND
     1    1    2 1    
     2    1   72 1    
     3    1   73 1    
     4    1   74 1    
     5    2    3 2    
     6    2    4 am   BACKBONE|DICT|INTERRES
     7    4    5 1    
     8    4   75 1    
     9    5    6 1    
    10    5   35 1    
    11    5   76 1    
    12    6    7 1    
    13    6   77 1    
    14    6   78 1    
    15    7    8 1    
    16    8    9 1    
    17    8   79 1    
    18    8   80 1    
    19    9   10 ar   
    20    9   14 ar   
    21   10   11 ar   
    22   10   81 1    
    23   11   12 ar   
    24   11   71 1    
    25   12   13 ar   
    26   12   82 1    
    27   13   14 ar   
    28   13   15 1    
    29   14   83 1    
    30   15   16 1    
    31   15   84 1    
    32   15   85 1    
    33   16   17 1    
    34   17   18 1    
    35   17   86 1    
    36   17   87 1    
    37   18   19 1    
    38   18   37 1    
    39   18   88 1    
    40   19   20 am   BACKBONE|DICT|INTERRES
    41   19   89 1    
    42   20   21 2    
    43   20   22 1    
    44   22   23 1    
    45   22   24 1    
    46   22   90 1    
    47   23   91 1    
    48   23   92 1    
    49   23   93 1    
    50   24   25 am   BACKBONE|DICT|INTERRES
    51   24   94 1    
    52   25   26 2    
    53   25   27 1    
    54   27   28 1    
    55   27   29 1    
    56   27   95 1    
    57   28   96 1    
    58   28   97 1    
    59   28   98 1    
    60   29   30 am   BACKBONE|DICT|INTERRES
    61   29   99 1    
    62   30   31 2    
    63   30   32 1    
    64   32   33 1    
    65   32   34 1    
    66   32  100 1    
    67   33  101 1    
    68   33  102 1    
    69   33  103 1    
    70   34   35 am   BACKBONE|DICT|INTERRES
    71   34  104 1    
    72   35   36 2    
    73   37   38 2    
    74   37   39 am   BACKBONE|DICT|INTERRES
    75   39   40 1    
    76   39  105 1    
    77   40   41 1    
    78   40   42 1    
    79   40  106 1    
    80   41  107 1    
    81   41  108 1    
    82   41  109 1    
    83   42   43 2    
    84   42   44 am   BACKBONE|DICT|INTERRES
    85   44   45 1    
    86   44  110 1    
    87   45   46 1    
    88   45   47 1    
    89   45  111 1    
    90   46  112 1    
    91   46  113 1    
    92   46  114 1    
    93   47   48 2    
    94   47   49 am   BACKBONE|DICT|INTERRES
    95   49   50 1    
    96   49  115 1    
    97   50   51 1    
    98   50   52 1    
    99   50  116 1    
   100   51  117 1    
   101   51  118 1    
   102   51  119 1    
   103   52   53 2    
   104   52   54 am   BACKBONE|DICT|INTERRES
   105   54   55 1    
   106   54  120 1    
   107   55   56 1    
   108   55   57 1    
   109   55  121 1    
   110   56  122 1    
   111   56  123 1    
   112   56  124 1    
   113   57   58 2    
   114   57   59 am   BACKBONE|DICT|INTERRES
   115   59   60 1    
   116   59  125 1    
   117   60   61 1    
   118   60   62 1    
   119   60  126 1    
   120   61  127 1    
   121   61  128 1    
   122   61  129 1    
   123   62   63 2    
   124   62   64 am   BACKBONE|DICT|INTERRES
   125   64   65 1    
   126   64  130 1    
   127   65   66 1    
   128   65   69 1    
   129   65  131 1    
   130   66   67 am   BACKBONE|DICT|INTERRES
   131   66   68 2    
   132   67  132 1    
   133   67  133 1    
   134   69   70 1    
   135   69  134 1    
   136   69  135 1    
   137   70   71 1    
   138   71  136 1    
   139   71  137 1    
@<TRIPOS>SUBSTRUCTURE
     1 UNK         1 GROUP             0       ****    0 ROOT    
