@<TRIPOS>MOLECULE
3R136
137   139    1
SMALL
USER_CHARGES


@<TRIPOS>ATOM
      1 CA         26.5593   21.5655    3.9493 C.3       0 UNK        -0.1979 
      2 C          26.9500   22.4885    2.8061 C.2       0 UNK         0.4864 
      3 O          26.4623   23.6196    2.7398 O.2       0 UNK        -0.5359 
      4 N          27.8413   22.0277    1.9141 N.am      1 UNK        -0.4318 
      5 CA         28.3145   22.7683    0.7357 C.3       1 UNK         0.0824 
      6 C6         29.2317   21.9260   -0.1838 C.3       12 UNK        -0.0944 
      7 S7         30.7459   21.2940    0.6217 S.3       12 UNK        -0.2672 
      8 C8         32.0612   22.0061   -0.4217 C.3       12 UNK         0.0333 
      9 C9         32.4769   23.4026    0.0243 C.ar      12 UNK        -0.0807 
     10 C10        33.3079   23.5518    1.1392 C.ar      12 UNK        -0.0894 
     11 C11        33.7553   24.8140    1.5425 C.ar      12 UNK        -0.0804 
     12 C12        33.3739   25.9337    0.7912 C.ar      12 UNK        -0.0824 
     13 C13        32.5230   25.8073   -0.3114 C.ar      12 UNK        -0.0762 
     14 C14        32.0764   24.5369   -0.6917 C.ar      12 UNK        -0.0782 
     15 C15        32.1112   27.0480   -1.0945 C.3       12 UNK         0.0230 
     16 S16        30.5460   27.7605   -0.4839 S.3       12 UNK        -0.2608 
     17 C17        29.4446   27.4217   -1.9037 C.3       12 UNK        -0.0989 
     18 CA         27.9836   27.9296   -1.7674 C.3       5 UNK         0.0716 
     19 N          27.1936   27.1371   -0.8183 N.am      5 UNK        -0.4135 
     20 C          25.8516   27.1193   -0.7834 C.2       4 UNK         0.5031 
     21 O          25.1424   27.7263   -1.5872 O.2       4 UNK        -0.5229 
     22 CA         25.1694   26.3173    0.3395 C.3       4 UNK         0.0329 
     23 CB         24.8624   24.8885   -0.1323 C.3       4 UNK        -0.2001 
     24 N          25.9139   26.2732    1.6023 N.am      4 UNK        -0.4303 
     25 C          26.2293   27.3446    2.3478 C.2       3 UNK         0.5044 
     26 O          26.0024   28.5070    2.0130 O.2       3 UNK        -0.5152 
     27 CA         26.9469   27.0744    3.6766 C.3       3 UNK         0.0319 
     28 CB         25.9789   26.5128    4.7303 C.3       3 UNK        -0.2001 
     29 N          28.0463   26.1385    3.4643 N.am      3 UNK        -0.4354 
     30 C          29.2922   26.5127    3.1477 C.2       2 UNK         0.4964 
     31 O          29.6839   27.6803    3.1810 O.2       2 UNK        -0.5047 
     32 CA         30.2798   25.4060    2.7473 C.3       2 UNK         0.0288 
     33 CB         31.1578   25.0156    3.9425 C.3       2 UNK        -0.2113 
     34 N          29.6477   24.1999    2.2159 N.am      2 UNK        -0.4145 
     35 C          28.9427   24.1319    1.0782 C.2       1 UNK         0.5006 
     36 O          28.7238   25.0917    0.3428 O.2       1 UNK        -0.5103 
     37 C          27.9009   29.4525   -1.5126 C.2       5 UNK         0.5055 
     38 O          28.2527   30.2215   -2.4086 O.2       5 UNK        -0.5220 
     39 N          27.4512   29.8618   -0.3135 N.am      6 UNK        -0.4450 
     40 CA         27.1978   31.2247    0.1779 C.3       6 UNK         0.0367 
     41 CB         26.1159   31.9251   -0.6661 C.3       6 UNK        -0.1929 
     42 C          28.4380   32.1240    0.3318 C.2       6 UNK         0.5070 
     43 O          28.4717   32.9331    1.2582 O.2       6 UNK        -0.5237 
     44 N          29.4257   31.9823   -0.5594 N.am      7 UNK        -0.4739 
     45 CA         30.6665   32.7584   -0.5864 C.3       7 UNK         0.0276 
     46 CB         31.4246   32.4563   -1.8891 C.3       7 UNK        -0.1927 
     47 C          31.5664   32.5091    0.6340 C.2       7 UNK         0.5013 
     48 O          32.1623   33.4582    1.1453 O.2       7 UNK        -0.5193 
     49 N          31.6495   31.2456    1.0732 N.am      8 UNK        -0.4253 
     50 CA         32.4161   30.8463    2.2538 C.3       8 UNK         0.0242 
     51 CB         32.8094   29.3688    2.1443 C.3       8 UNK        -0.2000 
     52 C          31.6518   31.1116    3.5582 C.2       8 UNK         0.4948 
     53 O          32.2471   31.6298    4.5030 O.2       8 UNK        -0.5275 
     54 N          30.3569   30.7560    3.5728 N.am      9 UNK        -0.4246 
     55 CA         29.4157   30.8700    4.6942 C.3       9 UNK         0.0261 
     56 CB         29.0945   32.3513    4.9869 C.3       9 UNK        -0.1959 
     57 C          29.8915   30.0920    5.9385 C.2       9 UNK         0.5033 
     58 O          29.9927   30.6684    7.0234 O.2       9 UNK        -0.5390 
     59 N          30.1646   28.7957    5.7282 N.am      10 UNK        -0.4215 
     60 CA         30.7327   27.8060    6.6510 C.3       10 UNK         0.0240 
     61 CB         29.9512   27.7084    7.9775 C.3       10 UNK        -0.1982 
     62 C          32.2391   28.0359    6.8671 C.2       10 UNK         0.4970 
     63 O          32.6325   28.9730    7.5636 O.2       10 UNK        -0.4916 
     64 N          33.0516   27.1674    6.2528 N.am      11 UNK        -0.4279 
     65 CA         34.5203   27.1626    6.3270 C.3       11 UNK         0.1003 
     66 C          35.0491   26.8702    7.7580 C.2       11 UNK         0.5709 
     67 N          36.1726   27.4635    8.1379 N.am      11 UNK        -0.7358 
     68 O          34.4758   26.0798    8.5063 O.2       11 UNK        -0.4999 
     69 C69        35.1365   26.1677    5.3048 C.3       12 UNK        -0.0954 
     70 S70        34.6548   26.5573    3.5893 S.3       12 UNK        -0.2268 
     71 C71        34.6458   24.9158    2.7858 C.3       12 UNK         0.0203 
     72 H72        26.8028   22.0294    4.9047 H         1 UNK         0.0888 
     73 H73        25.4865   21.3764    3.9259 H         1 UNK         0.0888 
     74 H74        27.0751   20.6071    3.8946 H         1 UNK         0.0888 
     75 H75        28.2250   21.0994    2.0255 H         1 UNK         0.3017 
     76 H76        27.4205   22.9902    0.1532 H         1 UNK         0.0873 
     77 H77        29.4943   22.4996   -1.0747 H         1 UNK         0.0745 
     78 H78        28.6750   21.0636   -0.5538 H         1 UNK         0.0745 
     79 H79        31.7537   22.0046   -1.4684 H         1 UNK         0.0705 
     80 H80        32.9303   21.3486   -0.3701 H         1 UNK         0.0705 
     81 H81        33.6091   22.6746    1.6958 H         1 UNK         0.1334 
     82 H82        33.7259   26.9153    1.0669 H         1 UNK         0.1417 
     83 H83        31.4262   24.4331   -1.5494 H         1 UNK         0.1562 
     84 H84        32.0354   26.8079   -2.1559 H         1 UNK         0.0748 
     85 H85        32.8886   27.8098   -1.0190 H         1 UNK         0.0748 
     86 H86        29.4419   26.3458   -2.0862 H         1 UNK         0.0940 
     87 H87        29.8972   27.8681   -2.7913 H         1 UNK         0.0940 
     88 H88        27.5210   27.7772   -2.7451 H         1 UNK         0.0703 
     89 H89        27.7219   26.5396   -0.1839 H         1 UNK         0.3081 
     90 H90        24.2186   26.8096    0.5541 H         1 UNK         0.0719 
     91 H91        24.3868   24.2989    0.6520 H         1 UNK         0.0809 
     92 H92        24.1844   24.9003   -0.9867 H         1 UNK         0.0809 
     93 H93        25.7658   24.3692   -0.4465 H         1 UNK         0.0809 
     94 H94        26.1359   25.3491    1.9644 H         1 UNK         0.2990 
     95 H95        27.3319   28.0244    4.0535 H         1 UNK         0.0690 
     96 H96        25.1522   27.2027    4.9051 H         1 UNK         0.0788 
     97 H97        26.4822   26.3616    5.6854 H         1 UNK         0.0788 
     98 H98        25.5483   25.5584    4.4254 H         1 UNK         0.0788 
     99 H99        27.7966   25.1593    3.3903 H         1 UNK         0.2993 
    100 H100       30.9129   25.8175    1.9622 H         1 UNK         0.0949 
    101 H101       30.5631   24.7063    4.8031 H         1 UNK         0.0767 
    102 H102       31.8329   24.1979    3.6924 H         1 UNK         0.0767 
    103 H103       31.7741   25.8608    4.2400 H         1 UNK         0.0767 
    104 H104       29.7737   23.3481    2.7425 H         1 UNK         0.3013 
    105 H105       27.1938   29.1385    0.3492 H         1 UNK         0.3121 
    106 H106       26.7915   31.0948    1.1825 H         1 UNK         0.0774 
    107 H107       26.4493   32.1058   -1.6884 H         1 UNK         0.0815 
    108 H108       25.8530   32.8924   -0.2360 H         1 UNK         0.0815 
    109 H109       25.2030   31.3310   -0.7104 H         1 UNK         0.0815 
    110 H110       29.2650   31.3276   -1.3216 H         1 UNK         0.2987 
    111 H111       30.3963   33.8167   -0.5837 H         1 UNK         0.0949 
    112 H112       31.6905   31.4012   -1.9673 H         1 UNK         0.0806 
    113 H113       30.8283   32.7165   -2.7638 H         1 UNK         0.0806 
    114 H114       32.3496   33.0320   -1.9456 H         1 UNK         0.0806 
    115 H115       31.1325   30.5284    0.5847 H         1 UNK         0.3010 
    116 H116       33.3392   31.4299    2.2867 H         1 UNK         0.0829 
    117 H117       33.4384   29.1975    1.2715 H         1 UNK         0.0813 
    118 H118       33.3778   29.0638    3.0225 H         1 UNK         0.0813 
    119 H119       31.9418   28.7123    2.0733 H         1 UNK         0.0813 
    120 H120       29.9937   30.2925    2.7521 H         1 UNK         0.3038 
    121 H121       28.4897   30.3936    4.3679 H         1 UNK         0.0769 
    122 H122       28.7266   32.8595    4.0955 H         1 UNK         0.0811 
    123 H123       29.9703   32.8939    5.3440 H         1 UNK         0.0811 
    124 H124       28.3229   32.4390    5.7526 H         1 UNK         0.0811 
    125 H125       30.0421   28.4605    4.7724 H         1 UNK         0.3204 
    126 H126       30.6048   26.8447    6.1538 H         1 UNK         0.0748 
    127 H127       30.3086   26.8677    8.5731 H         1 UNK         0.0771 
    128 H128       30.0639   28.6031    8.5902 H         1 UNK         0.0771 
    129 H129       28.8868   27.5533    7.8006 H         1 UNK         0.0771 
    130 H130       32.6510   26.4131    5.7191 H         1 UNK         0.2980 
    131 H131       34.8490   28.1680    6.0557 H         1 UNK         0.0545 
    132 H132       36.5397   27.2736    9.0574 H         1 UNK         0.3459 
    133 H133       36.6581   28.1022    7.5273 H         1 UNK         0.3459 
    134 H134       36.2266   26.1894    5.3547 H         1 UNK         0.0616 
    135 H135       34.8367   25.1464    5.5461 H         1 UNK         0.0616 
    136 H136       34.3177   24.1726    3.5135 H         1 UNK         0.0634 
    137 H137       35.6687   24.6541    2.5130 H         1 UNK         0.0634 
@<TRIPOS>BOND
     1    1    2 1    
     2    1   72 1    
     3    1   73 1    
     4    1   74 1    
     5    2    3 2    
     6    2    4 am   BACKBONE|DICT|INTERRES
     7    4    5 1    
     8    4   75 1    
     9    5    6 1    
    10    5   35 1    
    11    5   76 1    
    12    6    7 1    
    13    6   77 1    
    14    6   78 1    
    15    7    8 1    
    16    8    9 1    
    17    8   79 1    
    18    8   80 1    
    19    9   10 ar   
    20    9   14 ar   
    21   10   11 ar   
    22   10   81 1    
    23   11   12 ar   
    24   11   71 1    
    25   12   13 ar   
    26   12   82 1    
    27   13   14 ar   
    28   13   15 1    
    29   14   83 1    
    30   15   16 1    
    31   15   84 1    
    32   15   85 1    
    33   16   17 1    
    34   17   18 1    
    35   17   86 1    
    36   17   87 1    
    37   18   19 1    
    38   18   37 1    
    39   18   88 1    
    40   19   20 am   BACKBONE|DICT|INTERRES
    41   19   89 1    
    42   20   21 2    
    43   20   22 1    
    44   22   23 1    
    45   22   24 1    
    46   22   90 1    
    47   23   91 1    
    48   23   92 1    
    49   23   93 1    
    50   24   25 am   BACKBONE|DICT|INTERRES
    51   24   94 1    
    52   25   26 2    
    53   25   27 1    
    54   27   28 1    
    55   27   29 1    
    56   27   95 1    
    57   28   96 1    
    58   28   97 1    
    59   28   98 1    
    60   29   30 am   BACKBONE|DICT|INTERRES
    61   29   99 1    
    62   30   31 2    
    63   30   32 1    
    64   32   33 1    
    65   32   34 1    
    66   32  100 1    
    67   33  101 1    
    68   33  102 1    
    69   33  103 1    
    70   34   35 am   BACKBONE|DICT|INTERRES
    71   34  104 1    
    72   35   36 2    
    73   37   38 2    
    74   37   39 am   BACKBONE|DICT|INTERRES
    75   39   40 1    
    76   39  105 1    
    77   40   41 1    
    78   40   42 1    
    79   40  106 1    
    80   41  107 1    
    81   41  108 1    
    82   41  109 1    
    83   42   43 2    
    84   42   44 am   BACKBONE|DICT|INTERRES
    85   44   45 1    
    86   44  110 1    
    87   45   46 1    
    88   45   47 1    
    89   45  111 1    
    90   46  112 1    
    91   46  113 1    
    92   46  114 1    
    93   47   48 2    
    94   47   49 am   BACKBONE|DICT|INTERRES
    95   49   50 1    
    96   49  115 1    
    97   50   51 1    
    98   50   52 1    
    99   50  116 1    
   100   51  117 1    
   101   51  118 1    
   102   51  119 1    
   103   52   53 2    
   104   52   54 am   BACKBONE|DICT|INTERRES
   105   54   55 1    
   106   54  120 1    
   107   55   56 1    
   108   55   57 1    
   109   55  121 1    
   110   56  122 1    
   111   56  123 1    
   112   56  124 1    
   113   57   58 2    
   114   57   59 am   BACKBONE|DICT|INTERRES
   115   59   60 1    
   116   59  125 1    
   117   60   61 1    
   118   60   62 1    
   119   60  126 1    
   120   61  127 1    
   121   61  128 1    
   122   61  129 1    
   123   62   63 2    
   124   62   64 am   BACKBONE|DICT|INTERRES
   125   64   65 1    
   126   64  130 1    
   127   65   66 1    
   128   65   69 1    
   129   65  131 1    
   130   66   67 am   BACKBONE|DICT|INTERRES
   131   66   68 2    
   132   67  132 1    
   133   67  133 1    
   134   69   70 1    
   135   69  134 1    
   136   69  135 1    
   137   70   71 1    
   138   71  136 1    
   139   71  137 1    
@<TRIPOS>SUBSTRUCTURE
     1 UNK         1 GROUP             0       ****    0 ROOT    
