@<TRIPOS>MOLECULE
3R136
137   139    1
SMALL
USER_CHARGES


@<TRIPOS>ATOM
      1 CA         33.1539   23.3566    2.4856 C.3       0 UNK        -0.1979 
      2 C          31.7617   23.7706    2.0351 C.2       0 UNK         0.4864 
      3 O          31.6286   24.7106    1.2520 O.2       0 UNK        -0.5359 
      4 N          30.7224   23.0714    2.5114 N.am      1 UNK        -0.4318 
      5 CA         29.2992   23.3665    2.2850 C.3       1 UNK         0.0824 
      6 C6         28.3949   22.7123    3.3667 C.3       12 UNK        -0.0944 
      7 S7         28.9247   23.0169    5.0871 S.3       12 UNK        -0.2672 
      8 C8         27.8272   24.3854    5.6018 C.3       12 UNK         0.0333 
      9 C9         28.2940   25.7973    5.2365 C.ar      12 UNK        -0.0807 
     10 C10        29.5847   26.0784    4.7685 C.ar      12 UNK        -0.0894 
     11 C11        29.9782   27.3914    4.4962 C.ar      12 UNK        -0.0804 
     12 C12        29.0743   28.4385    4.6962 C.ar      12 UNK        -0.0824 
     13 C13        27.7801   28.1765    5.1541 C.ar      12 UNK        -0.0762 
     14 C14        27.4021   26.8577    5.4267 C.ar      12 UNK        -0.0782 
     15 C15        26.7902   29.3142    5.3670 C.3       12 UNK         0.0230 
     16 S16        25.3381   29.1688    4.2755 S.3       12 UNK        -0.2608 
     17 C17        26.0020   29.7411    2.6742 C.3       12 UNK        -0.0989 
     18 CA         26.7052   28.6271    1.8543 C.3       5 UNK         0.0716 
     19 N          25.8671   27.4400    1.6875 N.am      5 UNK        -0.4135 
     20 C          26.3276   26.2215    1.3850 C.2       4 UNK         0.5031 
     21 O          27.5144   25.9829    1.1587 O.2       4 UNK        -0.5229 
     22 CA         25.3244   25.0536    1.3762 C.3       4 UNK         0.0329 
     23 CB         23.8567   25.4468    1.6672 C.3       4 UNK        -0.2001 
     24 N          25.4505   24.2714    0.1437 N.am      4 UNK        -0.4303 
     25 C          25.1445   24.6635   -1.1031 C.2       3 UNK         0.5044 
     26 O          24.5978   25.7326   -1.3812 O.2       3 UNK        -0.5152 
     27 CA         25.5392   23.6788   -2.2236 C.3       3 UNK         0.0319 
     28 CB         25.3157   24.2415   -3.6443 C.3       3 UNK        -0.2001 
     29 N          26.9128   23.1881   -2.0505 N.am      3 UNK        -0.4354 
     30 C          28.0338   23.9256   -2.0440 C.2       2 UNK         0.4964 
     31 O          28.0810   25.1214   -2.3331 O.2       2 UNK        -0.5047 
     32 CA         29.3148   23.2029   -1.5932 C.3       2 UNK         0.0288 
     33 CB         30.5440   23.6552   -2.4017 C.3       2 UNK        -0.2113 
     34 N          29.5747   23.4302   -0.1706 N.am      2 UNK        -0.4145 
     35 C          28.8255   23.0001    0.8534 C.2       1 UNK         0.5006 
     36 O          27.8065   22.3199    0.6979 O.2       1 UNK        -0.5103 
     37 C          27.2153   29.1485    0.4963 C.2       5 UNK         0.5055 
     38 O          26.6080   30.0530   -0.0811 O.2       5 UNK        -0.5220 
     39 N          28.3258   28.5739    0.0135 N.am      6 UNK        -0.4450 
     40 CA         29.0672   29.0432   -1.1630 C.3       6 UNK         0.0367 
     41 CB         30.1545   28.0187   -1.5243 C.3       6 UNK        -0.1929 
     42 C          29.6952   30.4325   -0.9444 C.2       6 UNK         0.5070 
     43 O          29.7702   31.2271   -1.8819 O.2       6 UNK        -0.5237 
     44 N          30.1096   30.6951    0.2982 N.am      7 UNK        -0.4739 
     45 CA         30.6046   31.9669    0.8057 C.3       7 UNK         0.0276 
     46 CB         32.0847   32.1689    0.4163 C.3       7 UNK        -0.1927 
     47 C          30.3114   31.9912    2.3142 C.2       7 UNK         0.5013 
     48 O          29.1503   31.8280    2.6940 O.2       7 UNK        -0.5193 
     49 N          31.3407   32.1693    3.1481 N.am      8 UNK        -0.4253 
     50 CA         31.2502   32.1967    4.6055 C.3       8 UNK         0.0242 
     51 CB         31.1006   33.6553    5.0759 C.3       8 UNK        -0.2000 
     52 C          32.5000   31.5434    5.2072 C.2       8 UNK         0.4948 
     53 O          33.4770   31.3070    4.4890 O.2       8 UNK        -0.5275 
     54 N          32.4465   31.2838    6.5216 N.am      9 UNK        -0.4246 
     55 CA         33.4986   30.6806    7.3470 C.3       9 UNK         0.0261 
     56 CB         34.7012   31.6430    7.4923 C.3       9 UNK        -0.1959 
     57 C          33.8695   29.2736    6.8439 C.2       9 UNK         0.5033 
     58 O          33.0660   28.3540    7.0015 O.2       9 UNK        -0.5390 
     59 N          35.0589   29.1305    6.2481 N.am      10 UNK        -0.4215 
     60 CA         35.5469   27.8880    5.6478 C.3       10 UNK         0.0240 
     61 CB         37.0835   27.8751    5.7272 C.3       10 UNK        -0.1982 
     62 C          35.0843   27.6870    4.1916 C.2       10 UNK         0.4970 
     63 O          35.2813   26.5905    3.6660 O.2       10 UNK        -0.4916 
     64 N          34.5114   28.7262    3.5624 N.am      11 UNK        -0.4279 
     65 CA         34.1751   28.7968    2.1298 C.3       11 UNK         0.1003 
     66 C          35.4308   28.7403    1.2025 C.2       11 UNK         0.5709 
     67 N          35.2511   28.6327   -0.1078 N.am      11 UNK        -0.7358 
     68 O          36.5735   28.8539    1.6442 O.2       11 UNK        -0.4999 
     69 C69        33.0391   27.8086    1.7204 C.3       12 UNK        -0.0954 
     70 S70        31.3912   28.3153    2.3102 S.3       12 UNK        -0.2268 
     71 C71        31.3894   27.6735    4.0070 C.3       12 UNK         0.0203 
     72 H72        33.1243   22.5354    3.2014 H         1 UNK         0.0888 
     73 H73        33.7471   23.0410    1.6278 H         1 UNK         0.0888 
     74 H74        33.6590   24.1999    2.9569 H         1 UNK         0.0888 
     75 H75        30.8982   22.2964    3.1350 H         1 UNK         0.3017 
     76 H76        29.1800   24.4473    2.3771 H         1 UNK         0.0873 
     77 H77        27.3626   23.0447    3.2495 H         1 UNK         0.0745 
     78 H78        28.3741   21.6290    3.2314 H         1 UNK         0.0745 
     79 H79        26.8257   24.2129    5.2049 H         1 UNK         0.0705 
     80 H80        27.7333   24.3390    6.6876 H         1 UNK         0.0705 
     81 H81        30.3007   25.2829    4.6238 H         1 UNK         0.1334 
     82 H82        29.3773   29.4537    4.4805 H         1 UNK         0.1417 
     83 H83        26.4035   26.6593    5.7926 H         1 UNK         0.1562 
     84 H84        27.2645   30.2858    5.2185 H         1 UNK         0.0748 
     85 H85        26.4518   29.2948    6.4038 H         1 UNK         0.0748 
     86 H86        26.6870   30.5729    2.8502 H         1 UNK         0.0940 
     87 H87        25.1652   30.1588    2.1109 H         1 UNK         0.0940 
     88 H88        27.5877   28.3240    2.4178 H         1 UNK         0.0703 
     89 H89        24.8796   27.5643    1.8517 H         1 UNK         0.3081 
     90 H90        25.6413   24.3900    2.1813 H         1 UNK         0.0719 
     91 H91        23.7578   25.8928    2.6578 H         1 UNK         0.0809 
     92 H92        23.2087   24.5704    1.6505 H         1 UNK         0.0809 
     93 H93        23.4624   26.1593    0.9420 H         1 UNK         0.0809 
     94 H94        25.9764   23.4100    0.2416 H         1 UNK         0.2990 
     95 H95        24.8865   22.8119   -2.1099 H         1 UNK         0.0690 
     96 H96        25.5993   23.5168   -4.4073 H         1 UNK         0.0788 
     97 H97        25.8880   25.1533   -3.8177 H         1 UNK         0.0788 
     98 H98        24.2647   24.4857   -3.8038 H         1 UNK         0.0788 
     99 H99        26.9912   22.2229   -1.7582 H         1 UNK         0.2993 
    100 H100       29.1854   22.1299   -1.7502 H         1 UNK         0.0949 
    101 H101       30.3793   23.5194   -3.4714 H         1 UNK         0.0767 
    102 H102       30.7718   24.7093   -2.2365 H         1 UNK         0.0767 
    103 H103       31.4286   23.0776   -2.1329 H         1 UNK         0.0767 
    104 H104       30.3753   24.0117    0.0682 H         1 UNK         0.3013 
    105 H105       28.6849   27.7570    0.4948 H         1 UNK         0.3121 
    106 H106       28.3674   29.1164   -1.9980 H         1 UNK         0.0774 
    107 H107       30.7072   28.3319   -2.4109 H         1 UNK         0.0815 
    108 H108       30.8756   27.8902   -0.7172 H         1 UNK         0.0815 
    109 H109       29.7230   27.0428   -1.7407 H         1 UNK         0.0815 
    110 H110       29.9844   29.9770    1.0002 H         1 UNK         0.2987 
    111 H111       30.0169   32.7743    0.3636 H         1 UNK         0.0949 
    112 H112       32.2015   32.2034   -0.6670 H         1 UNK         0.0806 
    113 H113       32.4741   33.1111    0.8041 H         1 UNK         0.0806 
    114 H114       32.7166   31.3631    0.7846 H         1 UNK         0.0806 
    115 H115       32.2845   32.2005    2.7850 H         1 UNK         0.3010 
    116 H116       30.3842   31.6189    4.9347 H         1 UNK         0.0829 
    117 H117       30.2087   34.1172    4.6518 H         1 UNK         0.0813 
    118 H118       31.0083   33.7176    6.1607 H         1 UNK         0.0813 
    119 H119       31.9601   34.2610    4.7854 H         1 UNK         0.0813 
    120 H120       31.5867   31.4908    7.0107 H         1 UNK         0.3038 
    121 H121       33.0718   30.5420    8.3417 H         1 UNK         0.0769 
    122 H122       35.1576   31.8944    6.5345 H         1 UNK         0.0811 
    123 H123       35.4758   31.2130    8.1290 H         1 UNK         0.0811 
    124 H124       34.3928   32.5787    7.9587 H         1 UNK         0.0811 
    125 H125       35.6429   29.9483    6.1458 H         1 UNK         0.3204 
    126 H126       35.1721   27.0404    6.2259 H         1 UNK         0.0748 
    127 H127       37.4879   26.9418    5.3326 H         1 UNK         0.0771 
    128 H128       37.5245   28.6894    5.1506 H         1 UNK         0.0771 
    129 H129       37.4292   27.9649    6.7573 H         1 UNK         0.0771 
    130 H130       34.3667   29.5930    4.0703 H         1 UNK         0.2980 
    131 H131       33.7989   29.8090    1.9951 H         1 UNK         0.0545 
    132 H132       34.3285   28.5659   -0.5062 H         1 UNK         0.3459 
    133 H133       36.0592   28.6189   -0.7099 H         1 UNK         0.3459 
    134 H134       32.9416   27.7424    0.6373 H         1 UNK         0.0616 
    135 H135       33.2536   26.7914    2.0477 H         1 UNK         0.0616 
    136 H136       32.0018   26.7722    4.0615 H         1 UNK         0.0634 
    137 H137       31.8570   28.4106    4.6583 H         1 UNK         0.0634 
@<TRIPOS>BOND
     1    1    2 1    
     2    1   72 1    
     3    1   73 1    
     4    1   74 1    
     5    2    3 2    
     6    2    4 am   BACKBONE|DICT|INTERRES
     7    4    5 1    
     8    4   75 1    
     9    5    6 1    
    10    5   35 1    
    11    5   76 1    
    12    6    7 1    
    13    6   77 1    
    14    6   78 1    
    15    7    8 1    
    16    8    9 1    
    17    8   79 1    
    18    8   80 1    
    19    9   10 ar   
    20    9   14 ar   
    21   10   11 ar   
    22   10   81 1    
    23   11   12 ar   
    24   11   71 1    
    25   12   13 ar   
    26   12   82 1    
    27   13   14 ar   
    28   13   15 1    
    29   14   83 1    
    30   15   16 1    
    31   15   84 1    
    32   15   85 1    
    33   16   17 1    
    34   17   18 1    
    35   17   86 1    
    36   17   87 1    
    37   18   19 1    
    38   18   37 1    
    39   18   88 1    
    40   19   20 am   BACKBONE|DICT|INTERRES
    41   19   89 1    
    42   20   21 2    
    43   20   22 1    
    44   22   23 1    
    45   22   24 1    
    46   22   90 1    
    47   23   91 1    
    48   23   92 1    
    49   23   93 1    
    50   24   25 am   BACKBONE|DICT|INTERRES
    51   24   94 1    
    52   25   26 2    
    53   25   27 1    
    54   27   28 1    
    55   27   29 1    
    56   27   95 1    
    57   28   96 1    
    58   28   97 1    
    59   28   98 1    
    60   29   30 am   BACKBONE|DICT|INTERRES
    61   29   99 1    
    62   30   31 2    
    63   30   32 1    
    64   32   33 1    
    65   32   34 1    
    66   32  100 1    
    67   33  101 1    
    68   33  102 1    
    69   33  103 1    
    70   34   35 am   BACKBONE|DICT|INTERRES
    71   34  104 1    
    72   35   36 2    
    73   37   38 2    
    74   37   39 am   BACKBONE|DICT|INTERRES
    75   39   40 1    
    76   39  105 1    
    77   40   41 1    
    78   40   42 1    
    79   40  106 1    
    80   41  107 1    
    81   41  108 1    
    82   41  109 1    
    83   42   43 2    
    84   42   44 am   BACKBONE|DICT|INTERRES
    85   44   45 1    
    86   44  110 1    
    87   45   46 1    
    88   45   47 1    
    89   45  111 1    
    90   46  112 1    
    91   46  113 1    
    92   46  114 1    
    93   47   48 2    
    94   47   49 am   BACKBONE|DICT|INTERRES
    95   49   50 1    
    96   49  115 1    
    97   50   51 1    
    98   50   52 1    
    99   50  116 1    
   100   51  117 1    
   101   51  118 1    
   102   51  119 1    
   103   52   53 2    
   104   52   54 am   BACKBONE|DICT|INTERRES
   105   54   55 1    
   106   54  120 1    
   107   55   56 1    
   108   55   57 1    
   109   55  121 1    
   110   56  122 1    
   111   56  123 1    
   112   56  124 1    
   113   57   58 2    
   114   57   59 am   BACKBONE|DICT|INTERRES
   115   59   60 1    
   116   59  125 1    
   117   60   61 1    
   118   60   62 1    
   119   60  126 1    
   120   61  127 1    
   121   61  128 1    
   122   61  129 1    
   123   62   63 2    
   124   62   64 am   BACKBONE|DICT|INTERRES
   125   64   65 1    
   126   64  130 1    
   127   65   66 1    
   128   65   69 1    
   129   65  131 1    
   130   66   67 am   BACKBONE|DICT|INTERRES
   131   66   68 2    
   132   67  132 1    
   133   67  133 1    
   134   69   70 1    
   135   69  134 1    
   136   69  135 1    
   137   70   71 1    
   138   71  136 1    
   139   71  137 1    
@<TRIPOS>SUBSTRUCTURE
     1 UNK         1 GROUP             0       ****    0 ROOT    
