@<TRIPOS>MOLECULE
3R136
137   139    1
SMALL
USER_CHARGES


@<TRIPOS>ATOM
      1 CA         30.9099   24.3257    4.5105 C.3       0 UNK        -0.1979 
      2 C          31.1218   23.1781    3.5332 C.2       0 UNK         0.4864 
      3 O          32.2527   22.7249    3.3552 O.2       0 UNK        -0.5359 
      4 N          30.0397   22.7104    2.9049 N.am      1 UNK        -0.4318 
      5 CA         29.9890   21.6266    1.9230 C.3       1 UNK         0.0824 
      6 C6         30.7600   21.9348    0.6042 C.3       12 UNK        -0.0944 
      7 S7         30.1311   23.4103   -0.2715 S.3       12 UNK        -0.2672 
      8 C8         31.5428   24.5458   -0.1424 C.3       12 UNK         0.0333 
      9 C9         31.0704   25.9823   -0.0074 C.ar      12 UNK        -0.0807 
     10 C10        31.1993   26.6462    1.2140 C.ar      12 UNK        -0.0894 
     11 C11        30.7917   27.9751    1.3464 C.ar      12 UNK        -0.0804 
     12 C12        30.2705   28.6473    0.2377 C.ar      12 UNK        -0.0824 
     13 C13        30.1028   27.9827   -0.9823 C.ar      12 UNK        -0.0762 
     14 C14        30.5123   26.6512   -1.1002 C.ar      12 UNK        -0.0782 
     15 C15        29.4903   28.6978   -2.1790 C.3       12 UNK         0.0230 
     16 S16        27.6672   28.6280   -2.1530 S.3       12 UNK        -0.2608 
     17 C17        27.2737   29.9061   -0.9063 C.3       12 UNK        -0.0989 
     18 CA         26.6331   29.3745    0.4083 C.3       5 UNK         0.0716 
     19 N          27.1927   28.0853    0.8399 N.am      5 UNK        -0.4135 
     20 C          26.6906   27.2981    1.8001 C.2       4 UNK         0.5031 
     21 O          25.7536   27.6242    2.5314 O.2       4 UNK        -0.5229 
     22 CA         27.3304   25.9004    1.9290 C.3       4 UNK         0.0329 
     23 CB         26.7874   25.1146    3.1395 C.3       4 UNK        -0.2001 
     24 N          27.2076   25.0970    0.7036 N.am      4 UNK        -0.4303 
     25 C          26.0901   24.8428   -0.0004 C.2       3 UNK         0.5044 
     26 O          24.9691   25.2657    0.2826 O.2       3 UNK        -0.5152 
     27 CA         26.2532   23.9338   -1.2277 C.3       3 UNK         0.0319 
     28 CB         27.1363   24.5886   -2.3052 C.3       3 UNK        -0.2001 
     29 N          26.7936   22.6270   -0.8465 N.am      3 UNK        -0.4354 
     30 C          26.0653   21.6415   -0.2968 C.2       2 UNK         0.4964 
     31 O          24.8475   21.7037   -0.1246 O.2       2 UNK        -0.5047 
     32 CA         26.8122   20.3636    0.1334 C.3       2 UNK         0.0288 
     33 CB         26.8340   19.3397   -1.0134 C.3       2 UNK        -0.2113 
     34 N          28.1837   20.6206    0.5801 N.am      2 UNK        -0.4145 
     35 C          28.5011   21.2788    1.7041 C.2       1 UNK         0.5006 
     36 O          27.6635   21.6372    2.5375 O.2       1 UNK        -0.5103 
     37 C          26.6766   30.4876    1.4819 C.2       5 UNK         0.5055 
     38 O          25.9998   31.5014    1.3053 O.2       5 UNK        -0.5220 
     39 N          27.4943   30.3089    2.5338 N.am      6 UNK        -0.4450 
     40 CA         27.7819   31.2691    3.6103 C.3       6 UNK         0.0367 
     41 CB         26.5201   31.5691    4.4471 C.3       6 UNK        -0.1929 
     42 C          28.4941   32.5411    3.1055 C.2       6 UNK         0.5070 
     43 O          28.2587   33.6317    3.6274 O.2       6 UNK        -0.5237 
     44 N          29.3559   32.3707    2.0947 N.am      7 UNK        -0.4739 
     45 CA         30.0878   33.4389    1.4095 C.3       7 UNK         0.0276 
     46 CB         29.3646   33.7730    0.0900 C.3       7 UNK        -0.1927 
     47 C          31.5669   33.0696    1.1905 C.2       7 UNK         0.5013 
     48 O          32.1860   33.5758    0.2532 O.2       7 UNK        -0.5193 
     49 N          32.1138   32.1967    2.0455 N.am      8 UNK        -0.4253 
     50 CA         33.5060   31.7540    2.0308 C.3       8 UNK         0.0242 
     51 CB         33.7119   30.6523    0.9731 C.3       8 UNK        -0.2000 
     52 C          33.8757   31.2552    3.4311 C.2       8 UNK         0.4948 
     53 O          32.9879   30.8529    4.1887 O.2       8 UNK        -0.5275 
     54 N          35.1807   31.2630    3.7368 N.am      9 UNK        -0.4246 
     55 CA         35.7560   30.9200    5.0449 C.3       9 UNK         0.0261 
     56 CB         37.2755   31.1510    5.0076 C.3       9 UNK        -0.1959 
     57 C          35.4442   29.4971    5.5426 C.2       9 UNK         0.5033 
     58 O          35.3918   29.2858    6.7551 O.2       9 UNK        -0.5390 
     59 N          35.2008   28.5609    4.6131 N.am      10 UNK        -0.4215 
     60 CA         34.7821   27.1803    4.8845 C.3       10 UNK         0.0240 
     61 CB         34.6691   26.4175    3.5533 C.3       10 UNK        -0.1982 
     62 C          33.4632   27.0658    5.6732 C.2       10 UNK         0.4970 
     63 O          33.2686   26.0728    6.3743 O.2       10 UNK        -0.4916 
     64 N          32.5959   28.0773    5.5492 N.am      11 UNK        -0.4279 
     65 CA         31.3274   28.1982    6.2768 C.3       11 UNK         0.1003 
     66 C          31.4808   28.8507    7.6829 C.2       11 UNK         0.5709 
     67 N          32.6672   29.2715    8.1099 N.am      11 UNK        -0.7358 
     68 O          30.5004   28.9633    8.4149 O.2       11 UNK        -0.4999 
     69 C69        30.2649   28.9301    5.4150 C.3       12 UNK        -0.0954 
     70 S70        29.7980   27.9880    3.9238 S.3       12 UNK        -0.2268 
     71 C71        30.9365   28.6777    2.6854 C.3       12 UNK         0.0203 
     72 H72        31.1788   24.0163    5.5200 H         1 UNK         0.0888 
     73 H73        31.5396   25.1715    4.2392 H         1 UNK         0.0888 
     74 H74        29.8754   24.6689    4.5225 H         1 UNK         0.0888 
     75 H75        29.1195   23.0636    3.1361 H         1 UNK         0.3017 
     76 H76        30.4414   20.7473    2.3856 H         1 UNK         0.0873 
     77 H77        31.8220   22.0552    0.8187 H         1 UNK         0.0745 
     78 H78        30.7228   21.0860   -0.0799 H         1 UNK         0.0745 
     79 H79        32.1665   24.2803    0.7124 H         1 UNK         0.0705 
     80 H80        32.1722   24.4415   -1.0272 H         1 UNK         0.0705 
     81 H81        31.6190   26.1304    2.0657 H         1 UNK         0.1334 
     82 H82        29.9861   29.6843    0.3279 H         1 UNK         0.1417 
     83 H83        30.3997   26.1323   -2.0428 H         1 UNK         0.1562 
     84 H84        29.8395   28.2370   -3.1043 H         1 UNK         0.0748 
     85 H85        29.8278   29.7347   -2.2185 H         1 UNK         0.0748 
     86 H86        26.5874   30.6139   -1.3757 H         1 UNK         0.0940 
     87 H87        28.1715   30.4907   -0.7042 H         1 UNK         0.0940 
     88 H88        25.5769   29.1870    0.2029 H         1 UNK         0.0703 
     89 H89        27.9465   27.7288    0.2678 H         1 UNK         0.3081 
     90 H90        28.3978   26.0559    2.0895 H         1 UNK         0.0719 
     91 H91        25.7217   24.9054    3.0397 H         1 UNK         0.0809 
     92 H92        27.3025   24.1640    3.2615 H         1 UNK         0.0809 
     93 H93        26.9259   25.6774    4.0636 H         1 UNK         0.0809 
     94 H94        28.0723   24.6992    0.3607 H         1 UNK         0.2990 
     95 H95        25.2637   23.7854   -1.6664 H         1 UNK         0.0690 
     96 H96        27.1988   23.9645   -3.1967 H         1 UNK         0.0788 
     97 H97        28.1515   24.7746   -1.9575 H         1 UNK         0.0788 
     98 H98        26.7214   25.5495   -2.6128 H         1 UNK         0.0788 
     99 H99        27.7912   22.4984   -0.9416 H         1 UNK         0.2993 
    100 H100       26.2598   19.9286    0.9696 H         1 UNK         0.0949 
    101 H101       27.2895   18.4005   -0.6984 H         1 UNK         0.0767 
    102 H102       25.8218   19.1099   -1.3497 H         1 UNK         0.0767 
    103 H103       27.3880   19.7100   -1.8771 H         1 UNK         0.0767 
    104 H104       28.9240   20.3514   -0.0515 H         1 UNK         0.3013 
    105 H105       27.9748   29.4222    2.6027 H         1 UNK         0.3121 
    106 H106       28.4924   30.7794    4.2739 H         1 UNK         0.0774 
    107 H107       26.7695   32.1548    5.3326 H         1 UNK         0.0815 
    108 H108       25.7817   32.1378    3.8814 H         1 UNK         0.0815 
    109 H109       26.0455   30.6500    4.7908 H         1 UNK         0.0815 
    110 H110       29.4863   31.4395    1.7317 H         1 UNK         0.2987 
    111 H111       30.0966   34.3382    2.0293 H         1 UNK         0.0949 
    112 H112       29.3791   32.9297   -0.6013 H         1 UNK         0.0806 
    113 H113       28.3232   34.0427    0.2667 H         1 UNK         0.0806 
    114 H114       29.8337   34.6187   -0.4145 H         1 UNK         0.0806 
    115 H115       31.5862   31.8790    2.8491 H         1 UNK         0.3010 
    116 H116       34.1442   32.6086    1.7946 H         1 UNK         0.0829 
    117 H117       33.4547   31.0063   -0.0253 H         1 UNK         0.0813 
    118 H118       34.7528   30.3291    0.9385 H         1 UNK         0.0813 
    119 H119       33.1053   29.7713    1.1773 H         1 UNK         0.0813 
    120 H120       35.8329   31.5939    3.0396 H         1 UNK         0.3038 
    121 H121       35.3258   31.6100    5.7740 H         1 UNK         0.0769 
    122 H122       37.7631   30.5158    4.2669 H         1 UNK         0.0811 
    123 H123       37.7284   30.9291    5.9752 H         1 UNK         0.0811 
    124 H124       37.5151   32.1882    4.7725 H         1 UNK         0.0811 
    125 H125       35.2778   28.8307    3.6436 H         1 UNK         0.3204 
    126 H126       35.5623   26.7115    5.4876 H         1 UNK         0.0748 
    127 H127       35.6258   26.3852    3.0316 H         1 UNK         0.0771 
    128 H128       34.3582   25.3843    3.7182 H         1 UNK         0.0771 
    129 H129       33.9376   26.8742    2.8857 H         1 UNK         0.0771 
    130 H130       32.8547   28.8861    4.9966 H         1 UNK         0.2980 
    131 H131       30.9474   27.1930    6.4691 H         1 UNK         0.0545 
    132 H132       32.7372   29.6830    9.0267 H         1 UNK         0.3459 
    133 H133       33.4988   29.1773    7.5385 H         1 UNK         0.3459 
    134 H134       30.6136   29.9247    5.1331 H         1 UNK         0.0616 
    135 H135       29.3476   29.0810    5.9869 H         1 UNK         0.0616 
    136 H136       30.7531   29.7469    2.5886 H         1 UNK         0.0634 
    137 H137       31.9652   28.5670    3.0241 H         1 UNK         0.0634 
@<TRIPOS>BOND
     1    1    2 1    
     2    1   72 1    
     3    1   73 1    
     4    1   74 1    
     5    2    3 2    
     6    2    4 am   BACKBONE|DICT|INTERRES
     7    4    5 1    
     8    4   75 1    
     9    5    6 1    
    10    5   35 1    
    11    5   76 1    
    12    6    7 1    
    13    6   77 1    
    14    6   78 1    
    15    7    8 1    
    16    8    9 1    
    17    8   79 1    
    18    8   80 1    
    19    9   10 ar   
    20    9   14 ar   
    21   10   11 ar   
    22   10   81 1    
    23   11   12 ar   
    24   11   71 1    
    25   12   13 ar   
    26   12   82 1    
    27   13   14 ar   
    28   13   15 1    
    29   14   83 1    
    30   15   16 1    
    31   15   84 1    
    32   15   85 1    
    33   16   17 1    
    34   17   18 1    
    35   17   86 1    
    36   17   87 1    
    37   18   19 1    
    38   18   37 1    
    39   18   88 1    
    40   19   20 am   BACKBONE|DICT|INTERRES
    41   19   89 1    
    42   20   21 2    
    43   20   22 1    
    44   22   23 1    
    45   22   24 1    
    46   22   90 1    
    47   23   91 1    
    48   23   92 1    
    49   23   93 1    
    50   24   25 am   BACKBONE|DICT|INTERRES
    51   24   94 1    
    52   25   26 2    
    53   25   27 1    
    54   27   28 1    
    55   27   29 1    
    56   27   95 1    
    57   28   96 1    
    58   28   97 1    
    59   28   98 1    
    60   29   30 am   BACKBONE|DICT|INTERRES
    61   29   99 1    
    62   30   31 2    
    63   30   32 1    
    64   32   33 1    
    65   32   34 1    
    66   32  100 1    
    67   33  101 1    
    68   33  102 1    
    69   33  103 1    
    70   34   35 am   BACKBONE|DICT|INTERRES
    71   34  104 1    
    72   35   36 2    
    73   37   38 2    
    74   37   39 am   BACKBONE|DICT|INTERRES
    75   39   40 1    
    76   39  105 1    
    77   40   41 1    
    78   40   42 1    
    79   40  106 1    
    80   41  107 1    
    81   41  108 1    
    82   41  109 1    
    83   42   43 2    
    84   42   44 am   BACKBONE|DICT|INTERRES
    85   44   45 1    
    86   44  110 1    
    87   45   46 1    
    88   45   47 1    
    89   45  111 1    
    90   46  112 1    
    91   46  113 1    
    92   46  114 1    
    93   47   48 2    
    94   47   49 am   BACKBONE|DICT|INTERRES
    95   49   50 1    
    96   49  115 1    
    97   50   51 1    
    98   50   52 1    
    99   50  116 1    
   100   51  117 1    
   101   51  118 1    
   102   51  119 1    
   103   52   53 2    
   104   52   54 am   BACKBONE|DICT|INTERRES
   105   54   55 1    
   106   54  120 1    
   107   55   56 1    
   108   55   57 1    
   109   55  121 1    
   110   56  122 1    
   111   56  123 1    
   112   56  124 1    
   113   57   58 2    
   114   57   59 am   BACKBONE|DICT|INTERRES
   115   59   60 1    
   116   59  125 1    
   117   60   61 1    
   118   60   62 1    
   119   60  126 1    
   120   61  127 1    
   121   61  128 1    
   122   61  129 1    
   123   62   63 2    
   124   62   64 am   BACKBONE|DICT|INTERRES
   125   64   65 1    
   126   64  130 1    
   127   65   66 1    
   128   65   69 1    
   129   65  131 1    
   130   66   67 am   BACKBONE|DICT|INTERRES
   131   66   68 2    
   132   67  132 1    
   133   67  133 1    
   134   69   70 1    
   135   69  134 1    
   136   69  135 1    
   137   70   71 1    
   138   71  136 1    
   139   71  137 1    
@<TRIPOS>SUBSTRUCTURE
     1 UNK         1 GROUP             0       ****    0 ROOT    
