@<TRIPOS>MOLECULE
3R136
137   139    1
SMALL
USER_CHARGES


@<TRIPOS>ATOM
      1 CA         28.0798   21.6593    0.1198 C.3       0 UNK        -0.1979 
      2 C          28.5232   22.8326   -0.7380 C.2       0 UNK         0.4864 
      3 O          28.0645   22.9690   -1.8733 O.2       0 UNK        -0.5359 
      4 N          29.4153   23.6827   -0.2111 N.am      1 UNK        -0.4318 
      5 CA         29.9473   24.8615   -0.9059 C.3       1 UNK         0.0824 
      6 C6         31.1320   25.5105   -0.1578 C.3       12 UNK        -0.0944 
      7 S7         32.5188   24.3380    0.0235 S.3       12 UNK        -0.2672 
      8 C8         33.3455   24.9334    1.5354 C.3       12 UNK         0.0333 
      9 C9         32.4474   24.9294    2.7679 C.ar      12 UNK        -0.0807 
     10 C10        32.4155   26.0527    3.5991 C.ar      12 UNK        -0.0894 
     11 C11        31.6164   26.0680    4.7444 C.ar      12 UNK        -0.0804 
     12 C12        30.8353   24.9529    5.0533 C.ar      12 UNK        -0.0824 
     13 C13        30.8414   23.8285    4.2216 C.ar      12 UNK        -0.0762 
     14 C14        31.6638   23.8148    3.0910 C.ar      12 UNK        -0.0782 
     15 C15        29.9567   22.6318    4.5445 C.3       12 UNK         0.0230 
     16 S16        28.4193   22.6294    3.5619 S.3       12 UNK        -0.2608 
     17 C17        27.6373   24.1922    4.0820 C.3       12 UNK        -0.0989 
     18 CA         27.7137   25.2605    2.9502 C.3       5 UNK         0.0716 
     19 N          26.6562   25.1357    1.9347 N.am      5 UNK        -0.4135 
     20 C          25.3412   25.3164    2.1416 C.2       4 UNK         0.5031 
     21 O          24.8302   25.3986    3.2592 O.2       4 UNK        -0.5229 
     22 CA         24.4227   25.4856    0.9210 C.3       4 UNK         0.0329 
     23 CB         23.9380   26.9440    0.8178 C.3       4 UNK        -0.2001 
     24 N          25.0327   25.1047   -0.3563 N.am      4 UNK        -0.4303 
     25 C          24.3764   24.4692   -1.3396 C.2       3 UNK         0.5044 
     26 O          23.2310   24.0307   -1.2170 O.2       3 UNK        -0.5152 
     27 CA         25.1034   24.2864   -2.6894 C.3       3 UNK         0.0319 
     28 CB         24.1455   24.3799   -3.8969 C.3       3 UNK        -0.2001 
     29 N          26.2647   25.1676   -2.8660 N.am      3 UNK        -0.4354 
     30 C          26.2807   26.5101   -2.9440 C.2       2 UNK         0.4964 
     31 O          25.2643   27.2051   -2.9623 O.2       2 UNK        -0.5047 
     32 CA         27.6675   27.1940   -2.9783 C.3       2 UNK         0.0288 
     33 CB         27.6502   28.5843   -2.3073 C.3       2 UNK        -0.2113 
     34 N          28.7475   26.3633   -2.4229 N.am      2 UNK        -0.4145 
     35 C          28.8269   25.8836   -1.1726 C.2       1 UNK         0.5006 
     36 O          28.0292   26.1623   -0.2708 O.2       1 UNK        -0.5103 
     37 C          27.7742   26.7217    3.4493 C.2       5 UNK         0.5055 
     38 O          27.7055   26.9830    4.6523 O.2       5 UNK        -0.5220 
     39 N          27.8469   27.6539    2.4864 N.am      6 UNK        -0.4450 
     40 CA         27.8674   29.0974    2.7191 C.3       6 UNK         0.0367 
     41 CB         27.7020   29.8271    1.3769 C.3       6 UNK        -0.1929 
     42 C          29.1626   29.5452    3.4104 C.2       6 UNK         0.5070 
     43 O          30.2475   29.1375    2.9916 O.2       6 UNK        -0.5237 
     44 N          29.0326   30.4180    4.4195 N.am      7 UNK        -0.4739 
     45 CA         30.1488   30.9495    5.2106 C.3       7 UNK         0.0276 
     46 CB         29.6130   31.8285    6.3503 C.3       7 UNK        -0.1927 
     47 C          31.1911   31.7127    4.3796 C.2       7 UNK         0.5013 
     48 O          32.3853   31.6049    4.6578 O.2       7 UNK        -0.5193 
     49 N          30.7290   32.4118    3.3350 N.am      8 UNK        -0.4253 
     50 CA         31.5571   33.1471    2.3758 C.3       8 UNK         0.0242 
     51 CB         30.6386   33.8947    1.3950 C.3       8 UNK        -0.2000 
     52 C          32.5718   32.2794    1.6050 C.2       8 UNK         0.4948 
     53 O          33.5384   32.8305    1.0766 O.2       8 UNK        -0.5275 
     54 N          32.3509   30.9567    1.5479 N.am      9 UNK        -0.4246 
     55 CA         33.2466   30.0107    0.8860 C.3       9 UNK         0.0261 
     56 CB         32.4841   28.7154    0.5715 C.3       9 UNK        -0.1959 
     57 C          34.5255   29.7040    1.6855 C.2       9 UNK         0.5033 
     58 O          35.5232   29.3452    1.0579 O.2       9 UNK        -0.5390 
     59 N          34.4971   29.8370    3.0228 N.am      10 UNK        -0.4215 
     60 CA         35.6466   29.5602    3.8952 C.3       10 UNK         0.0240 
     61 CB         36.0329   28.0624    3.8779 C.3       10 UNK        -0.1982 
     62 C          35.4086   29.9996    5.3446 C.2       10 UNK         0.4970 
     63 O          36.2797   30.6457    5.9274 O.2       10 UNK        -0.4916 
     64 N          34.2724   29.5786    5.9135 N.am      11 UNK        -0.4279 
     65 CA         33.9660   29.6492    7.3532 C.3       11 UNK         0.1003 
     66 C          33.8601   31.0783    7.9582 C.2       11 UNK         0.5709 
     67 N          33.5458   32.1034    7.1782 N.am      11 UNK        -0.7358 
     68 O          34.0725   31.2552    9.1555 O.2       11 UNK        -0.4999 
     69 C69        32.7150   28.8065    7.7238 C.3       12 UNK        -0.0954 
     70 S70        32.7466   27.1164    7.0330 S.3       12 UNK        -0.2268 
     71 C71        31.5889   27.2934    5.6406 C.3       12 UNK         0.0203 
     72 H72        27.1668   21.9113    0.6589 H         1 UNK         0.0888 
     73 H73        27.8804   20.7876   -0.5029 H         1 UNK         0.0888 
     74 H74        28.8458   21.3837    0.8440 H         1 UNK         0.0888 
     75 H75        29.7668   23.5272    0.7221 H         1 UNK         0.3017 
     76 H76        30.3199   24.5126   -1.8719 H         1 UNK         0.0873 
     77 H77        30.8142   25.8794    0.8192 H         1 UNK         0.0745 
     78 H78        31.5003   26.3740   -0.7130 H         1 UNK         0.0745 
     79 H79        34.2102   24.2990    1.7335 H         1 UNK         0.0705 
     80 H80        33.7367   25.9337    1.3433 H         1 UNK         0.0705 
     81 H81        33.0164   26.9178    3.3577 H         1 UNK         0.1334 
     82 H82        30.2162   24.9686    5.9397 H         1 UNK         0.1417 
     83 H83        31.6842   22.9402    2.4551 H         1 UNK         0.1562 
     84 H84        29.7061   22.6139    5.6064 H         1 UNK         0.0748 
     85 H85        30.5034   21.7085    4.3471 H         1 UNK         0.0748 
     86 H86        28.1210   24.5300    4.9974 H         1 UNK         0.0940 
     87 H87        26.6089   23.9848    4.3757 H         1 UNK         0.0940 
     88 H88        28.6595   25.1216    2.4234 H         1 UNK         0.0703 
     89 H89        27.0003   25.1607    0.9823 H         1 UNK         0.3081 
     90 H90        23.5560   24.8514    1.1192 H         1 UNK         0.0719 
     91 H91        23.4626   27.2699    1.7441 H         1 UNK         0.0809 
     92 H92        24.7638   27.6273    0.6148 H         1 UNK         0.0809 
     93 H93        23.2040   27.0619    0.0204 H         1 UNK         0.0809 
     94 H94        25.9605   25.4585   -0.5513 H         1 UNK         0.2990 
     95 H95        25.5009   23.2709   -2.6720 H         1 UNK         0.0690 
     96 H96        24.6787   24.2454   -4.8379 H         1 UNK         0.0788 
     97 H97        23.6320   25.3409   -3.9352 H         1 UNK         0.0788 
     98 H98        23.3784   23.6060   -3.8490 H         1 UNK         0.0788 
     99 H99        27.1539   24.6814   -2.8255 H         1 UNK         0.2993 
    100 H100       27.9036   27.3385   -4.0338 H         1 UNK         0.0949 
    101 H101       27.3015   28.5276   -1.2767 H         1 UNK         0.0767 
    102 H102       28.6407   29.0392   -2.3039 H         1 UNK         0.0767 
    103 H103       26.9830   29.2661   -2.8361 H         1 UNK         0.0767 
    104 H104       29.4448   26.0654   -3.0921 H         1 UNK         0.3013 
    105 H105       27.9295   27.3467    1.5243 H         1 UNK         0.3121 
    106 H106       27.0169   29.3461    3.3575 H         1 UNK         0.0774 
    107 H107       28.5133   29.5894    0.6871 H         1 UNK         0.0815 
    108 H108       26.7603   29.5626    0.8959 H         1 UNK         0.0815 
    109 H109       27.6996   30.9090    1.5161 H         1 UNK         0.0815 
    110 H110       28.1049   30.7095    4.6941 H         1 UNK         0.2987 
    111 H111       30.6589   30.0967    5.6539 H         1 UNK         0.0949 
    112 H112       28.9537   31.2645    7.0105 H         1 UNK         0.0806 
    113 H113       30.4300   32.2115    6.9640 H         1 UNK         0.0806 
    114 H114       29.0576   32.6881    5.9731 H         1 UNK         0.0806 
    115 H115       29.7318   32.4230    3.1791 H         1 UNK         0.3010 
    116 H116       32.1322   33.8846    2.9398 H         1 UNK         0.0829 
    117 H117       30.0179   33.2065    0.8195 H         1 UNK         0.0813 
    118 H118       31.2214   34.4806    0.6826 H         1 UNK         0.0813 
    119 H119       29.9790   34.5884    1.9167 H         1 UNK         0.0813 
    120 H120       31.5437   30.5636    2.0198 H         1 UNK         0.3038 
    121 H121       33.5570   30.4483   -0.0655 H         1 UNK         0.0769 
    122 H122       31.5967   28.9111   -0.0308 H         1 UNK         0.0811 
    123 H123       32.1661   28.1998    1.4771 H         1 UNK         0.0811 
    124 H124       33.1149   28.0264    0.0086 H         1 UNK         0.0811 
    125 H125       33.6800   30.2505    3.4598 H         1 UNK         0.3204 
    126 H126       36.4934   30.1388    3.5197 H         1 UNK         0.0748 
    127 H127       35.1998   27.4237    4.1714 H         1 UNK         0.0771 
    128 H128       36.3730   27.7355    2.8960 H         1 UNK         0.0771 
    129 H129       36.8509   27.8635    4.5720 H         1 UNK         0.0771 
    130 H130       33.6273   29.0357    5.3638 H         1 UNK         0.2980 
    131 H131       34.8166   29.1838    7.8551 H         1 UNK         0.0545 
    132 H132       33.3127   31.9468    6.2008 H         1 UNK         0.3459 
    133 H133       33.4905   33.0285    7.5712 H         1 UNK         0.3459 
    134 H134       31.8001   29.3091    7.4119 H         1 UNK         0.0616 
    135 H135       32.6417   28.7113    8.8086 H         1 UNK         0.0616 
    136 H136       30.5790   27.4585    6.0200 H         1 UNK         0.0634 
    137 H137       31.8493   28.1766    5.0572 H         1 UNK         0.0634 
@<TRIPOS>BOND
     1    1    2 1    
     2    1   72 1    
     3    1   73 1    
     4    1   74 1    
     5    2    3 2    
     6    2    4 am   BACKBONE|DICT|INTERRES
     7    4    5 1    
     8    4   75 1    
     9    5    6 1    
    10    5   35 1    
    11    5   76 1    
    12    6    7 1    
    13    6   77 1    
    14    6   78 1    
    15    7    8 1    
    16    8    9 1    
    17    8   79 1    
    18    8   80 1    
    19    9   10 ar   
    20    9   14 ar   
    21   10   11 ar   
    22   10   81 1    
    23   11   12 ar   
    24   11   71 1    
    25   12   13 ar   
    26   12   82 1    
    27   13   14 ar   
    28   13   15 1    
    29   14   83 1    
    30   15   16 1    
    31   15   84 1    
    32   15   85 1    
    33   16   17 1    
    34   17   18 1    
    35   17   86 1    
    36   17   87 1    
    37   18   19 1    
    38   18   37 1    
    39   18   88 1    
    40   19   20 am   BACKBONE|DICT|INTERRES
    41   19   89 1    
    42   20   21 2    
    43   20   22 1    
    44   22   23 1    
    45   22   24 1    
    46   22   90 1    
    47   23   91 1    
    48   23   92 1    
    49   23   93 1    
    50   24   25 am   BACKBONE|DICT|INTERRES
    51   24   94 1    
    52   25   26 2    
    53   25   27 1    
    54   27   28 1    
    55   27   29 1    
    56   27   95 1    
    57   28   96 1    
    58   28   97 1    
    59   28   98 1    
    60   29   30 am   BACKBONE|DICT|INTERRES
    61   29   99 1    
    62   30   31 2    
    63   30   32 1    
    64   32   33 1    
    65   32   34 1    
    66   32  100 1    
    67   33  101 1    
    68   33  102 1    
    69   33  103 1    
    70   34   35 am   BACKBONE|DICT|INTERRES
    71   34  104 1    
    72   35   36 2    
    73   37   38 2    
    74   37   39 am   BACKBONE|DICT|INTERRES
    75   39   40 1    
    76   39  105 1    
    77   40   41 1    
    78   40   42 1    
    79   40  106 1    
    80   41  107 1    
    81   41  108 1    
    82   41  109 1    
    83   42   43 2    
    84   42   44 am   BACKBONE|DICT|INTERRES
    85   44   45 1    
    86   44  110 1    
    87   45   46 1    
    88   45   47 1    
    89   45  111 1    
    90   46  112 1    
    91   46  113 1    
    92   46  114 1    
    93   47   48 2    
    94   47   49 am   BACKBONE|DICT|INTERRES
    95   49   50 1    
    96   49  115 1    
    97   50   51 1    
    98   50   52 1    
    99   50  116 1    
   100   51  117 1    
   101   51  118 1    
   102   51  119 1    
   103   52   53 2    
   104   52   54 am   BACKBONE|DICT|INTERRES
   105   54   55 1    
   106   54  120 1    
   107   55   56 1    
   108   55   57 1    
   109   55  121 1    
   110   56  122 1    
   111   56  123 1    
   112   56  124 1    
   113   57   58 2    
   114   57   59 am   BACKBONE|DICT|INTERRES
   115   59   60 1    
   116   59  125 1    
   117   60   61 1    
   118   60   62 1    
   119   60  126 1    
   120   61  127 1    
   121   61  128 1    
   122   61  129 1    
   123   62   63 2    
   124   62   64 am   BACKBONE|DICT|INTERRES
   125   64   65 1    
   126   64  130 1    
   127   65   66 1    
   128   65   69 1    
   129   65  131 1    
   130   66   67 am   BACKBONE|DICT|INTERRES
   131   66   68 2    
   132   67  132 1    
   133   67  133 1    
   134   69   70 1    
   135   69  134 1    
   136   69  135 1    
   137   70   71 1    
   138   71  136 1    
   139   71  137 1    
@<TRIPOS>SUBSTRUCTURE
     1 UNK         1 GROUP             0       ****    0 ROOT    
