@<TRIPOS>MOLECULE
3R136
137   139    1
SMALL
USER_CHARGES


@<TRIPOS>ATOM
      1 CA         27.9333   21.7750   -0.3343 C.3       0 UNK        -0.1979 
      2 C          28.1723   23.1396   -0.9588 C.2       0 UNK         0.4864 
      3 O          27.4151   23.5504   -1.8392 O.2       0 UNK        -0.5359 
      4 N          29.2204   23.8488   -0.5182 N.am      1 UNK        -0.4318 
      5 CA         29.5868   25.1784   -1.0218 C.3       1 UNK         0.0824 
      6 C6         30.9962   25.6230   -0.5718 C.3       12 UNK        -0.0944 
      7 S7         32.2732   24.4257   -1.0884 S.3       12 UNK        -0.2672 
      8 C8         33.5359   24.6276    0.2102 C.3       12 UNK         0.0333 
      9 C9         33.0079   24.3591    1.6149 C.ar      12 UNK        -0.0807 
     10 C10        33.2547   25.2832    2.6344 C.ar      12 UNK        -0.0894 
     11 C11        32.7939   25.0499    3.9321 C.ar      12 UNK        -0.0804 
     12 C12        32.0680   23.8878    4.2055 C.ar      12 UNK        -0.0824 
     13 C13        31.8016   22.9605    3.1926 C.ar      12 UNK        -0.0762 
     14 C14        32.2882   23.1938    1.9033 C.ar      12 UNK        -0.0782 
     15 C15        31.0000   21.7006    3.4919 C.3       12 UNK         0.0230 
     16 S16        29.2553   21.8588    2.9853 S.3       12 UNK        -0.2608 
     17 C17        28.6676   23.1853    4.0876 C.3       12 UNK        -0.0989 
     18 CA         28.3709   24.4922    3.2960 C.3       5 UNK         0.0716 
     19 N          27.0994   24.4777    2.5533 N.am      5 UNK        -0.4135 
     20 C          25.8727   24.4076    3.0978 C.2       4 UNK         0.5031 
     21 O          25.6674   24.1356    4.2813 O.2       4 UNK        -0.5229 
     22 CA         24.6505   24.7247    2.2204 C.3       4 UNK         0.0329 
     23 CB         23.9130   25.9715    2.7483 C.3       4 UNK        -0.2001 
     24 N          24.9418   24.9157    0.7956 N.am      4 UNK        -0.4303 
     25 C          24.0811   24.5945   -0.1830 C.2       3 UNK         0.5044 
     26 O          23.0246   23.9923    0.0184 O.2       3 UNK        -0.5152 
     27 CA         24.4345   24.9996   -1.6294 C.3       3 UNK         0.0319 
     28 CB         23.2032   25.4985   -2.4165 C.3       3 UNK        -0.2001 
     29 N          25.5513   25.9454   -1.7438 N.am      3 UNK        -0.4354 
     30 C          25.6098   27.2230   -1.3301 C.2       2 UNK         0.4964 
     31 O          24.6713   27.8125   -0.7938 O.2       2 UNK        -0.5047 
     32 CA         26.9552   27.9559   -1.5388 C.3       2 UNK         0.0288 
     33 CB         27.1886   29.0818   -0.5092 C.3       2 UNK        -0.2113 
     34 N          28.1104   27.0463   -1.5968 N.am      2 UNK        -0.4145 
     35 C          28.5152   26.2126   -0.6274 C.2       1 UNK         0.5006 
     36 O          28.0383   26.1938    0.5127 O.2       1 UNK        -0.5103 
     37 C          28.4373   25.7709    4.1577 C.2       5 UNK         0.5055 
     38 O          28.5799   25.6983    5.3800 O.2       5 UNK        -0.5220 
     39 N          28.2715   26.9219    3.4919 N.am      6 UNK        -0.4450 
     40 CA         28.1901   28.2413    4.1181 C.3       6 UNK         0.0367 
     41 CB         26.7583   28.4893    4.6361 C.3       6 UNK        -0.1929 
     42 C          28.6748   29.3339    3.1532 C.2       6 UNK         0.5070 
     43 O          28.0686   30.4040    3.0821 O.2       6 UNK        -0.5237 
     44 N          29.7461   29.0461    2.4020 N.am      7 UNK        -0.4739 
     45 CA         30.3767   29.9984    1.4875 C.3       7 UNK         0.0276 
     46 CB         31.2674   29.2416    0.4920 C.3       7 UNK        -0.1927 
     47 C          31.1858   31.0359    2.2754 C.2       7 UNK         0.5013 
     48 O          32.1257   30.6517    2.9731 O.2       7 UNK        -0.5193 
     49 N          30.8225   32.3187    2.1344 N.am      8 UNK        -0.4253 
     50 CA         31.3370   33.4625    2.9031 C.3       8 UNK         0.0242 
     51 CB         30.6592   34.7477    2.3994 C.3       8 UNK        -0.2000 
     52 C          32.8673   33.6392    2.9119 C.2       8 UNK         0.4948 
     53 O          33.4020   34.2129    3.8614 O.2       8 UNK        -0.5275 
     54 N          33.5445   33.1461    1.8673 N.am      9 UNK        -0.4246 
     55 CA         35.0029   33.1391    1.7495 C.3       9 UNK         0.0261 
     56 CB         35.3802   32.9011    0.2776 C.3       9 UNK        -0.1959 
     57 C          35.6974   32.1006    2.6531 C.2       9 UNK         0.5033 
     58 O          36.8989   32.2415    2.8884 O.2       9 UNK        -0.5390 
     59 N          34.9646   31.0764    3.1139 N.am      10 UNK        -0.4215 
     60 CA         35.4998   29.9466    3.8782 C.3       10 UNK         0.0240 
     61 CB         35.3637   28.6694    3.0324 C.3       10 UNK        -0.1982 
     62 C          34.8017   29.7603    5.2334 C.2       10 UNK         0.4970 
     63 O          35.4729   29.4071    6.2040 O.2       10 UNK        -0.4916 
     64 N          33.4838   29.9735    5.2822 N.am      11 UNK        -0.4279 
     65 CA         32.6203   29.7122    6.4383 C.3       11 UNK         0.1003 
     66 C          31.3330   30.5820    6.3804 C.2       11 UNK         0.5709 
     67 N          30.1900   30.0913    6.8420 N.am      11 UNK        -0.7358 
     68 O          31.3744   31.7405    5.9747 O.2       11 UNK        -0.4999 
     69 C69        32.4013   28.1893    6.6894 C.3       12 UNK        -0.0954 
     70 S70        31.7834   27.2716    5.2338 S.3       12 UNK        -0.2268 
     71 C71        33.1031   26.0373    5.0454 C.3       12 UNK         0.0203 
     72 H72        28.8586   21.3443    0.0470 H         1 UNK         0.0888 
     73 H73        27.2229   21.8567    0.4880 H         1 UNK         0.0888 
     74 H74        27.5243   21.0862   -1.0729 H         1 UNK         0.0888 
     75 H75        29.8145   23.4739    0.2066 H         1 UNK         0.3017 
     76 H76        29.6004   25.1074   -2.1120 H         1 UNK         0.0873 
     77 H77        31.0227   25.7683    0.5094 H         1 UNK         0.0745 
     78 H78        31.2562   26.5815   -1.0220 H         1 UNK         0.0745 
     79 H79        34.3605   23.9429    0.0084 H         1 UNK         0.0705 
     80 H80        33.9464   25.6359    0.1359 H         1 UNK         0.0705 
     81 H81        33.8167   26.1812    2.4214 H         1 UNK         0.1334 
     82 H82        31.7120   23.7085    5.2107 H         1 UNK         0.1417 
     83 H83        32.0985   22.4718    1.1205 H         1 UNK         0.1562 
     84 H84        31.0483   21.4557    4.5542 H         1 UNK         0.0748 
     85 H85        31.4430   20.8532    2.9667 H         1 UNK         0.0748 
     86 H86        29.4193   23.3501    4.8590 H         1 UNK         0.0940 
     87 H87        27.7909   22.8292    4.6276 H         1 UNK         0.0940 
     88 H88        29.1623   24.6153    2.5543 H         1 UNK         0.0703 
     89 H89        27.1900   24.7657    1.5877 H         1 UNK         0.3081 
     90 H90        23.9892   23.8635    2.3386 H         1 UNK         0.0719 
     91 H91        23.6761   25.8764    3.8089 H         1 UNK         0.0809 
     92 H92        24.5150   26.8726    2.6260 H         1 UNK         0.0809 
     93 H93        22.9704   26.1272    2.2233 H         1 UNK         0.0809 
     94 H94        25.7706   25.4398    0.5507 H         1 UNK         0.2990 
     95 H95        24.7745   24.0830   -2.1131 H         1 UNK         0.0690 
     96 H96        23.4679   25.7687   -3.4387 H         1 UNK         0.0788 
     97 H97        22.7454   26.3690   -1.9458 H         1 UNK         0.0788 
     98 H98        22.4368   24.7248   -2.4774 H         1 UNK         0.0788 
     99 H99        26.3936   25.5333   -2.1275 H         1 UNK         0.2993 
    100 H100       26.8847   28.4230   -2.5224 H         1 UNK         0.0949 
    101 H101       27.2082   28.7043    0.5131 H         1 UNK         0.0767 
    102 H102       28.1302   29.5952   -0.6990 H         1 UNK         0.0767 
    103 H103       26.3985   29.8318   -0.5607 H         1 UNK         0.0767 
    104 H104       28.5630   26.9854   -2.4992 H         1 UNK         0.3013 
    105 H105       28.1652   26.8939    2.4816 H         1 UNK         0.3121 
    106 H106       28.8711   28.2705    4.9708 H         1 UNK         0.0774 
    107 H107       26.0363   28.5090    3.8193 H         1 UNK         0.0815 
    108 H108       26.4478   27.7171    5.3400 H         1 UNK         0.0815 
    109 H109       26.6900   29.4448    5.1576 H         1 UNK         0.0815 
    110 H110       30.2316   28.1753    2.5629 H         1 UNK         0.2987 
    111 H111       29.5979   30.5137    0.9220 H         1 UNK         0.0949 
    112 H112       30.6628   28.6073   -0.1536 H         1 UNK         0.0806 
    113 H113       31.8106   29.9322   -0.1544 H         1 UNK         0.0806 
    114 H114       32.0050   28.6155    0.9963 H         1 UNK         0.0806 
    115 H115       30.0392   32.5202    1.5294 H         1 UNK         0.3010 
    116 H116       31.0324   33.3088    3.9390 H         1 UNK         0.0829 
    117 H117       30.8846   34.9379    1.3492 H         1 UNK         0.0813 
    118 H118       30.9961   35.6164    2.9672 H         1 UNK         0.0813 
    119 H119       29.5757   34.6956    2.5081 H         1 UNK         0.0813 
    120 H120       33.0220   32.7018    1.1265 H         1 UNK         0.3038 
    121 H121       35.3747   34.1239    2.0409 H         1 UNK         0.0769 
    122 H122       34.9593   33.6701   -0.3704 H         1 UNK         0.0811 
    123 H123       35.0300   31.9311   -0.0778 H         1 UNK         0.0811 
    124 H124       36.4627   32.9250    0.1433 H         1 UNK         0.0811 
    125 H125       33.9679   31.0534    2.9120 H         1 UNK         0.3204 
    126 H126       36.5607   30.0968    4.0892 H         1 UNK         0.0748 
    127 H127       34.3207   28.4644    2.7869 H         1 UNK         0.0771 
    128 H128       35.9169   28.7539    2.0969 H         1 UNK         0.0771 
    129 H129       35.7571   27.8020    3.5639 H         1 UNK         0.0771 
    130 H130       32.9815   30.2692    4.4458 H         1 UNK         0.2980 
    131 H131       33.1437   30.1004    7.3138 H         1 UNK         0.0545 
    132 H132       30.1374   29.1490    7.1941 H         1 UNK         0.3459 
    133 H133       29.3698   30.6758    6.8340 H         1 UNK         0.3459 
    134 H134       31.7230   28.0181    7.5260 H         1 UNK         0.0616 
    135 H135       33.3465   27.7489    7.0088 H         1 UNK         0.0616 
    136 H136       34.0472   26.5468    4.8492 H         1 UNK         0.0634 
    137 H137       33.2318   25.5018    5.9873 H         1 UNK         0.0634 
@<TRIPOS>BOND
     1    1    2 1    
     2    1   72 1    
     3    1   73 1    
     4    1   74 1    
     5    2    3 2    
     6    2    4 am   BACKBONE|DICT|INTERRES
     7    4    5 1    
     8    4   75 1    
     9    5    6 1    
    10    5   35 1    
    11    5   76 1    
    12    6    7 1    
    13    6   77 1    
    14    6   78 1    
    15    7    8 1    
    16    8    9 1    
    17    8   79 1    
    18    8   80 1    
    19    9   10 ar   
    20    9   14 ar   
    21   10   11 ar   
    22   10   81 1    
    23   11   12 ar   
    24   11   71 1    
    25   12   13 ar   
    26   12   82 1    
    27   13   14 ar   
    28   13   15 1    
    29   14   83 1    
    30   15   16 1    
    31   15   84 1    
    32   15   85 1    
    33   16   17 1    
    34   17   18 1    
    35   17   86 1    
    36   17   87 1    
    37   18   19 1    
    38   18   37 1    
    39   18   88 1    
    40   19   20 am   BACKBONE|DICT|INTERRES
    41   19   89 1    
    42   20   21 2    
    43   20   22 1    
    44   22   23 1    
    45   22   24 1    
    46   22   90 1    
    47   23   91 1    
    48   23   92 1    
    49   23   93 1    
    50   24   25 am   BACKBONE|DICT|INTERRES
    51   24   94 1    
    52   25   26 2    
    53   25   27 1    
    54   27   28 1    
    55   27   29 1    
    56   27   95 1    
    57   28   96 1    
    58   28   97 1    
    59   28   98 1    
    60   29   30 am   BACKBONE|DICT|INTERRES
    61   29   99 1    
    62   30   31 2    
    63   30   32 1    
    64   32   33 1    
    65   32   34 1    
    66   32  100 1    
    67   33  101 1    
    68   33  102 1    
    69   33  103 1    
    70   34   35 am   BACKBONE|DICT|INTERRES
    71   34  104 1    
    72   35   36 2    
    73   37   38 2    
    74   37   39 am   BACKBONE|DICT|INTERRES
    75   39   40 1    
    76   39  105 1    
    77   40   41 1    
    78   40   42 1    
    79   40  106 1    
    80   41  107 1    
    81   41  108 1    
    82   41  109 1    
    83   42   43 2    
    84   42   44 am   BACKBONE|DICT|INTERRES
    85   44   45 1    
    86   44  110 1    
    87   45   46 1    
    88   45   47 1    
    89   45  111 1    
    90   46  112 1    
    91   46  113 1    
    92   46  114 1    
    93   47   48 2    
    94   47   49 am   BACKBONE|DICT|INTERRES
    95   49   50 1    
    96   49  115 1    
    97   50   51 1    
    98   50   52 1    
    99   50  116 1    
   100   51  117 1    
   101   51  118 1    
   102   51  119 1    
   103   52   53 2    
   104   52   54 am   BACKBONE|DICT|INTERRES
   105   54   55 1    
   106   54  120 1    
   107   55   56 1    
   108   55   57 1    
   109   55  121 1    
   110   56  122 1    
   111   56  123 1    
   112   56  124 1    
   113   57   58 2    
   114   57   59 am   BACKBONE|DICT|INTERRES
   115   59   60 1    
   116   59  125 1    
   117   60   61 1    
   118   60   62 1    
   119   60  126 1    
   120   61  127 1    
   121   61  128 1    
   122   61  129 1    
   123   62   63 2    
   124   62   64 am   BACKBONE|DICT|INTERRES
   125   64   65 1    
   126   64  130 1    
   127   65   66 1    
   128   65   69 1    
   129   65  131 1    
   130   66   67 am   BACKBONE|DICT|INTERRES
   131   66   68 2    
   132   67  132 1    
   133   67  133 1    
   134   69   70 1    
   135   69  134 1    
   136   69  135 1    
   137   70   71 1    
   138   71  136 1    
   139   71  137 1    
@<TRIPOS>SUBSTRUCTURE
     1 UNK         1 GROUP             0       ****    0 ROOT    
