@<TRIPOS>MOLECULE
3R136
137   139    1
SMALL
USER_CHARGES


@<TRIPOS>ATOM
      1 CA         29.1364   23.1494    7.2323 C.3       0 UNK        -0.1979 
      2 C          28.5331   22.4339    6.0325 C.2       0 UNK         0.4864 
      3 O          27.6223   21.6208    6.2004 O.2       0 UNK        -0.5359 
      4 N          29.0387   22.7237    4.8282 N.am      1 UNK        -0.4318 
      5 CA         28.5220   22.2098    3.5576 C.3       1 UNK         0.0824 
      6 C6         29.6197   22.0317    2.4680 C.3       12 UNK        -0.0944 
      7 S7         30.9558   23.2803    2.4260 S.3       12 UNK        -0.2672 
      8 C8         30.2678   24.5196    1.2896 C.3       12 UNK         0.0333 
      9 C9         31.2825   25.5971    0.9282 C.ar      12 UNK        -0.0807 
     10 C10        31.7872   26.4533    1.9118 C.ar      12 UNK        -0.0894 
     11 C11        32.6882   27.4695    1.5802 C.ar      12 UNK        -0.0804 
     12 C12        33.0759   27.6350    0.2482 C.ar      12 UNK        -0.0824 
     13 C13        32.5790   26.7870   -0.7458 C.ar      12 UNK        -0.0762 
     14 C14        31.6884   25.7666   -0.3989 C.ar      12 UNK        -0.0782 
     15 C15        33.0119   26.9641   -2.1937 C.3       12 UNK         0.0230 
     16 S16        31.6911   27.6752   -3.2265 S.3       12 UNK        -0.2608 
     17 C17        31.5150   29.3534   -2.5299 C.3       12 UNK        -0.0989 
     18 CA         30.0592   29.6587   -2.0910 C.3       5 UNK         0.0716 
     19 N          29.5758   28.7344   -1.0569 N.am      5 UNK        -0.4135 
     20 C          28.2891   28.4286   -0.8484 C.2       4 UNK         0.5031 
     21 O          27.3586   28.9123   -1.4995 O.2       4 UNK        -0.5229 
     22 CA         27.9730   27.4662    0.3054 C.3       4 UNK         0.0329 
     23 CB         27.1736   28.1907    1.4010 C.3       4 UNK        -0.2001 
     24 N          27.2027   26.3057   -0.1423 N.am      4 UNK        -0.4303 
     25 C          27.5855   25.4011   -1.0523 C.2       3 UNK         0.5044 
     26 O          28.6714   25.4289   -1.6314 O.2       3 UNK        -0.5152 
     27 CA         26.5983   24.2490   -1.3283 C.3       3 UNK         0.0319 
     28 CB         27.1520   23.2223   -2.3346 C.3       3 UNK        -0.2001 
     29 N          26.2245   23.5459   -0.0978 N.am      3 UNK        -0.4354 
     30 C          25.3072   23.9615    0.7863 C.2       2 UNK         0.4964 
     31 O          24.6589   25.0007    0.6567 O.2       2 UNK        -0.5047 
     32 CA         25.0933   23.0876    2.0330 C.3       2 UNK         0.0288 
     33 CB         24.0166   22.0230    1.7660 C.3       2 UNK        -0.2113 
     34 N          26.3193   22.4347    2.5048 N.am      2 UNK        -0.4145 
     35 C          27.3431   23.0813    3.0816 C.2       1 UNK         0.5006 
     36 O          27.3716   24.3035    3.2400 O.2       1 UNK        -0.5103 
     37 C          29.8745   31.1263   -1.6453 C.2       5 UNK         0.5055 
     38 O          30.8524   31.8705   -1.5493 O.2       5 UNK        -0.5220 
     39 N          28.6211   31.5028   -1.3530 N.am      6 UNK        -0.4450 
     40 CA         28.0987   32.8127   -0.9356 C.3       6 UNK         0.0367 
     41 CB         28.3236   33.8709   -2.0331 C.3       6 UNK        -0.1929 
     42 C          28.5916   33.3349    0.4286 C.2       6 UNK         0.5070 
     43 O          27.7973   33.9334    1.1542 O.2       6 UNK        -0.5237 
     44 N          29.8761   33.1343    0.7453 N.am      7 UNK        -0.4739 
     45 CA         30.5548   33.6543    1.9337 C.3       7 UNK         0.0276 
     46 CB         32.0682   33.4085    1.8067 C.3       7 UNK        -0.1927 
     47 C          30.0150   33.0824    3.2539 C.2       7 UNK         0.5013 
     48 O          29.6552   33.8550    4.1435 O.2       7 UNK        -0.5193 
     49 N          29.9768   31.7490    3.3567 N.am      8 UNK        -0.4253 
     50 CA         29.5734   30.9875    4.5370 C.3       8 UNK         0.0242 
     51 CB         30.5779   31.2036    5.6891 C.3       8 UNK        -0.2000 
     52 C          29.5065   29.5020    4.1648 C.2       8 UNK         0.4948 
     53 O          30.0522   29.1074    3.1323 O.2       8 UNK        -0.5275 
     54 N          28.8590   28.7057    5.0253 N.am      9 UNK        -0.4246 
     55 CA         28.7676   27.2459    4.9038 C.3       9 UNK         0.0261 
     56 CB         27.5342   26.7541    5.6792 C.3       9 UNK        -0.1959 
     57 C          30.0298   26.5098    5.3877 C.2       9 UNK         0.5033 
     58 O          30.2035   25.3395    5.0528 O.2       9 UNK        -0.5390 
     59 N          30.8865   27.1846    6.1603 N.am      10 UNK        -0.4215 
     60 CA         32.1735   26.6820    6.6283 C.3       10 UNK         0.0240 
     61 CB         32.0561   26.2407    8.0968 C.3       10 UNK        -0.1982 
     62 C          33.1951   27.8087    6.4667 C.2       10 UNK         0.4970 
     63 O          32.8494   28.9724    6.6820 O.2       10 UNK        -0.4916 
     64 N          34.4207   27.4474    6.0872 N.am      11 UNK        -0.4279 
     65 CA         35.5177   28.3680    5.7732 C.3       11 UNK         0.1003 
     66 C          36.8882   27.6421    5.8365 C.2       11 UNK         0.5709 
     67 N          37.9872   28.3839    5.8055 N.am      11 UNK        -0.7358 
     68 O          36.9685   26.4164    5.9174 O.2       11 UNK        -0.4999 
     69 C69        35.2893   29.1379    4.4375 C.3       12 UNK        -0.0954 
     70 S70        34.9896   28.0524    2.9972 S.3       12 UNK        -0.2268 
     71 C71        33.2351   28.3955    2.6561 C.3       12 UNK         0.0203 
     72 H72        28.5282   24.0126    7.5006 H         1 UNK         0.0888 
     73 H73        29.1834   22.4808    8.0915 H         1 UNK         0.0888 
     74 H74        30.1484   23.4946    7.0216 H         1 UNK         0.0888 
     75 H75        29.6936   23.4997    4.7450 H         1 UNK         0.3017 
     76 H76        28.1158   21.2133    3.7459 H         1 UNK         0.0873 
     77 H77        30.1177   21.0775    2.6467 H         1 UNK         0.0745 
     78 H78        29.1822   21.9316    1.4727 H         1 UNK         0.0745 
     79 H79        29.9072   24.0152    0.3924 H         1 UNK         0.0705 
     80 H80        29.4031   24.9913    1.7553 H         1 UNK         0.0705 
     81 H81        31.4749   26.3258    2.9376 H         1 UNK         0.1334 
     82 H82        33.7727   28.4213   -0.0089 H         1 UNK         0.1417 
     83 H83        31.2958   25.1182   -1.1710 H         1 UNK         0.1562 
     84 H84        33.2950   25.9939   -2.6045 H         1 UNK         0.0748 
     85 H85        33.9009   27.5933   -2.2616 H         1 UNK         0.0748 
     86 H86        31.8320   30.0573   -3.3021 H         1 UNK         0.0940 
     87 H87        32.2062   29.4957   -1.6983 H         1 UNK         0.0940 
     88 H88        29.4326   29.5321   -2.9770 H         1 UNK         0.0703 
     89 H89        30.2851   28.2960   -0.4859 H         1 UNK         0.3081 
     90 H90        28.9081   27.1122    0.7398 H         1 UNK         0.0719 
     91 H91        26.2053   28.5334    1.0337 H         1 UNK         0.0809 
     92 H92        26.9926   27.5409    2.2571 H         1 UNK         0.0809 
     93 H93        27.7105   29.0680    1.7619 H         1 UNK         0.0809 
     94 H94        26.2831   26.1844    0.2673 H         1 UNK         0.2990 
     95 H95        25.7029   24.6932   -1.7685 H         1 UNK         0.0690 
     96 H96        26.4210   22.4427   -2.5496 H         1 UNK         0.0788 
     97 H97        28.0583   22.7412   -1.9642 H         1 UNK         0.0788 
     98 H98        27.4008   23.7000   -3.2833 H         1 UNK         0.0788 
     99 H99        26.7260   22.6935    0.1025 H         1 UNK         0.2993 
    100 H100       24.7334   23.7430    2.8297 H         1 UNK         0.0949 
    101 H101       23.7900   21.4531    2.6674 H         1 UNK         0.0767 
    102 H102       23.0852   22.4852    1.4351 H         1 UNK         0.0767 
    103 H103       24.3244   21.3196    0.9911 H         1 UNK         0.0767 
    104 H104       26.3589   21.4290    2.4173 H         1 UNK         0.3013 
    105 H105       27.9198   30.7692   -1.4285 H         1 UNK         0.3121 
    106 H106       27.0210   32.6726   -0.8362 H         1 UNK         0.0774 
    107 H107       27.8541   34.8177   -1.7628 H         1 UNK         0.0815 
    108 H108       29.3831   34.0708   -2.1957 H         1 UNK         0.0815 
    109 H109       27.8917   33.5556   -2.9829 H         1 UNK         0.0815 
    110 H110       30.4489   32.6620    0.0487 H         1 UNK         0.2987 
    111 H111       30.3909   34.7340    1.9574 H         1 UNK         0.0949 
    112 H112       32.3027   32.3471    1.7154 H         1 UNK         0.0806 
    113 H113       32.4790   33.9164    0.9339 H         1 UNK         0.0806 
    114 H114       32.6006   33.7869    2.6806 H         1 UNK         0.0806 
    115 H115       30.2588   31.1712    2.5737 H         1 UNK         0.3010 
    116 H116       28.5778   31.3157    4.8426 H         1 UNK         0.0829 
    117 H117       30.5785   32.2357    6.0381 H         1 UNK         0.0813 
    118 H118       30.3406   30.5827    6.5534 H         1 UNK         0.0813 
    119 H119       31.5948   30.9588    5.3798 H         1 UNK         0.0813 
    120 H120       28.4238   29.1176    5.8389 H         1 UNK         0.3038 
    121 H121       28.6362   26.9845    3.8518 H         1 UNK         0.0769 
    122 H122       27.5984   26.9951    6.7408 H         1 UNK         0.0811 
    123 H123       27.4297   25.6712    5.5973 H         1 UNK         0.0811 
    124 H124       26.6180   27.1940    5.2854 H         1 UNK         0.0811 
    125 H125       30.7227   28.1649    6.3447 H         1 UNK         0.3204 
    126 H126       32.4917   25.8323    6.0195 H         1 UNK         0.0748 
    127 H127       31.3185   25.4467    8.2129 H         1 UNK         0.0771 
    128 H128       33.0077   25.8573    8.4671 H         1 UNK         0.0771 
    129 H129       31.7611   27.0677    8.7442 H         1 UNK         0.0771 
    130 H130       34.6572   26.4707    5.9717 H         1 UNK         0.2980 
    131 H131       35.5483   29.1025    6.5803 H         1 UNK         0.0545 
    132 H132       38.8855   27.9283    5.8457 H         1 UNK         0.3459 
    133 H133       37.9380   29.3887    5.7421 H         1 UNK         0.3459 
    134 H134       36.1429   29.7779    4.2093 H         1 UNK         0.0616 
    135 H135       34.4462   29.8210    4.5502 H         1 UNK         0.0616 
    136 H136       33.1203   29.4333    2.3398 H         1 UNK         0.0634 
    137 H137       32.6605   28.2877    3.5768 H         1 UNK         0.0634 
@<TRIPOS>BOND
     1    1    2 1    
     2    1   72 1    
     3    1   73 1    
     4    1   74 1    
     5    2    3 2    
     6    2    4 am   BACKBONE|DICT|INTERRES
     7    4    5 1    
     8    4   75 1    
     9    5    6 1    
    10    5   35 1    
    11    5   76 1    
    12    6    7 1    
    13    6   77 1    
    14    6   78 1    
    15    7    8 1    
    16    8    9 1    
    17    8   79 1    
    18    8   80 1    
    19    9   10 ar   
    20    9   14 ar   
    21   10   11 ar   
    22   10   81 1    
    23   11   12 ar   
    24   11   71 1    
    25   12   13 ar   
    26   12   82 1    
    27   13   14 ar   
    28   13   15 1    
    29   14   83 1    
    30   15   16 1    
    31   15   84 1    
    32   15   85 1    
    33   16   17 1    
    34   17   18 1    
    35   17   86 1    
    36   17   87 1    
    37   18   19 1    
    38   18   37 1    
    39   18   88 1    
    40   19   20 am   BACKBONE|DICT|INTERRES
    41   19   89 1    
    42   20   21 2    
    43   20   22 1    
    44   22   23 1    
    45   22   24 1    
    46   22   90 1    
    47   23   91 1    
    48   23   92 1    
    49   23   93 1    
    50   24   25 am   BACKBONE|DICT|INTERRES
    51   24   94 1    
    52   25   26 2    
    53   25   27 1    
    54   27   28 1    
    55   27   29 1    
    56   27   95 1    
    57   28   96 1    
    58   28   97 1    
    59   28   98 1    
    60   29   30 am   BACKBONE|DICT|INTERRES
    61   29   99 1    
    62   30   31 2    
    63   30   32 1    
    64   32   33 1    
    65   32   34 1    
    66   32  100 1    
    67   33  101 1    
    68   33  102 1    
    69   33  103 1    
    70   34   35 am   BACKBONE|DICT|INTERRES
    71   34  104 1    
    72   35   36 2    
    73   37   38 2    
    74   37   39 am   BACKBONE|DICT|INTERRES
    75   39   40 1    
    76   39  105 1    
    77   40   41 1    
    78   40   42 1    
    79   40  106 1    
    80   41  107 1    
    81   41  108 1    
    82   41  109 1    
    83   42   43 2    
    84   42   44 am   BACKBONE|DICT|INTERRES
    85   44   45 1    
    86   44  110 1    
    87   45   46 1    
    88   45   47 1    
    89   45  111 1    
    90   46  112 1    
    91   46  113 1    
    92   46  114 1    
    93   47   48 2    
    94   47   49 am   BACKBONE|DICT|INTERRES
    95   49   50 1    
    96   49  115 1    
    97   50   51 1    
    98   50   52 1    
    99   50  116 1    
   100   51  117 1    
   101   51  118 1    
   102   51  119 1    
   103   52   53 2    
   104   52   54 am   BACKBONE|DICT|INTERRES
   105   54   55 1    
   106   54  120 1    
   107   55   56 1    
   108   55   57 1    
   109   55  121 1    
   110   56  122 1    
   111   56  123 1    
   112   56  124 1    
   113   57   58 2    
   114   57   59 am   BACKBONE|DICT|INTERRES
   115   59   60 1    
   116   59  125 1    
   117   60   61 1    
   118   60   62 1    
   119   60  126 1    
   120   61  127 1    
   121   61  128 1    
   122   61  129 1    
   123   62   63 2    
   124   62   64 am   BACKBONE|DICT|INTERRES
   125   64   65 1    
   126   64  130 1    
   127   65   66 1    
   128   65   69 1    
   129   65  131 1    
   130   66   67 am   BACKBONE|DICT|INTERRES
   131   66   68 2    
   132   67  132 1    
   133   67  133 1    
   134   69   70 1    
   135   69  134 1    
   136   69  135 1    
   137   70   71 1    
   138   71  136 1    
   139   71  137 1    
@<TRIPOS>SUBSTRUCTURE
     1 UNK         1 GROUP             0       ****    0 ROOT    
