@<TRIPOS>MOLECULE
3R136
137   139    1
SMALL
USER_CHARGES


@<TRIPOS>ATOM
      1 CA         32.9695   25.7948   -2.0225 C.3       0 UNK        -0.1979 
      2 C          32.6322   24.3449   -1.6837 C.2       0 UNK         0.4864 
      3 O          33.4092   23.4512   -2.0164 O.2       0 UNK        -0.5359 
      4 N          31.5057   24.0581   -1.0182 N.am      1 UNK        -0.4318 
      5 CA         30.4376   24.9877   -0.6410 C.3       1 UNK         0.0824 
      6 C6         29.6559   24.4984    0.6045 C.3       12 UNK        -0.0944 
      7 S7         29.0394   22.7744    0.5333 S.3       12 UNK        -0.2672 
      8 C8         30.3423   21.8163    1.3844 C.3       12 UNK         0.0333 
      9 C9         30.5612   22.2832    2.8151 C.ar      12 UNK        -0.0807 
     10 C10        31.6391   23.1193    3.1188 C.ar      12 UNK        -0.0894 
     11 C11        31.8000   23.6294    4.4082 C.ar      12 UNK        -0.0804 
     12 C12        30.8991   23.2618    5.4115 C.ar      12 UNK        -0.0824 
     13 C13        29.8314   22.4035    5.1259 C.ar      12 UNK        -0.0762 
     14 C14        29.6716   21.9104    3.8267 C.ar      12 UNK        -0.0782 
     15 C15        28.8223   22.0479    6.2091 C.3       12 UNK         0.0230 
     16 S16        27.2171   22.8729    5.9431 S.3       12 UNK        -0.2608 
     17 C17        27.7018   24.6336    5.9105 C.3       12 UNK        -0.0989 
     18 CA         27.8171   25.1760    4.4573 C.3       5 UNK         0.0716 
     19 N          26.5539   25.1197    3.7135 N.am      5 UNK        -0.4135 
     20 C          25.4381   25.8227    3.9506 C.2       4 UNK         0.5031 
     21 O          25.2995   26.6209    4.8795 O.2       4 UNK        -0.5229 
     22 CA         24.2897   25.6158    2.9417 C.3       4 UNK         0.0329 
     23 CB         22.9091   25.7687    3.6055 C.3       4 UNK        -0.2001 
     24 N          24.3758   26.5364    1.8023 N.am      4 UNK        -0.4303 
     25 C          25.3804   26.5804    0.9172 C.2       3 UNK         0.5044 
     26 O          26.3499   25.8189    0.9573 O.2       3 UNK        -0.5152 
     27 CA         25.2843   27.6361   -0.1977 C.3       3 UNK         0.0319 
     28 CB         25.1654   29.0632    0.3659 C.3       3 UNK        -0.2001 
     29 N          26.4974   27.5640   -1.0065 N.am      3 UNK        -0.4354 
     30 C          26.5743   27.1780   -2.2846 C.2       2 UNK         0.4964 
     31 O          25.5954   26.9714   -3.0029 O.2       2 UNK        -0.5047 
     32 CA         27.9841   26.9663   -2.8569 C.3       2 UNK         0.0288 
     33 CB         28.5316   28.2809   -3.4374 C.3       2 UNK        -0.2113 
     34 N          28.9060   26.4746   -1.8290 N.am      2 UNK        -0.4145 
     35 C          29.5125   25.2828   -1.8409 C.2       1 UNK         0.5006 
     36 O          29.3829   24.4505   -2.7432 O.2       1 UNK        -0.5103 
     37 C          28.4699   26.5733    4.3761 C.2       5 UNK         0.5055 
     38 O          28.9567   27.0869    5.3861 O.2       5 UNK        -0.5220 
     39 N          28.4602   27.1720    3.1769 N.am      6 UNK        -0.4450 
     40 CA         29.0130   28.4963    2.9137 C.3       6 UNK         0.0367 
     41 CB         28.0232   29.5778    3.3906 C.3       6 UNK        -0.1929 
     42 C          29.3493   28.6541    1.4265 C.2       6 UNK         0.5070 
     43 O          28.8525   27.8958    0.5887 O.2       6 UNK        -0.5237 
     44 N          30.1789   29.6550    1.1293 N.am      7 UNK        -0.4739 
     45 CA         30.5901   30.0797   -0.2055 C.3       7 UNK         0.0276 
     46 CB         31.5683   29.0663   -0.8393 C.3       7 UNK        -0.1927 
     47 C          31.1641   31.4927   -0.0593 C.2       7 UNK         0.5013 
     48 O          30.3935   32.4517    0.0118 O.2       7 UNK        -0.5193 
     49 N          32.4952   31.5995    0.0525 N.am      8 UNK        -0.4253 
     50 CA         33.2067   32.8100    0.4669 C.3       8 UNK         0.0242 
     51 CB         34.6785   32.7050    0.0267 C.3       8 UNK        -0.2000 
     52 C          33.0605   32.9706    1.9897 C.2       8 UNK         0.4948 
     53 O          33.9433   32.5483    2.7397 O.2       8 UNK        -0.5275 
     54 N          31.8953   33.4842    2.4102 N.am      9 UNK        -0.4246 
     55 CA         31.3712   33.4559    3.7811 C.3       9 UNK         0.0261 
     56 CB         32.2324   34.3230    4.7281 C.3       9 UNK        -0.1959 
     57 C          31.1817   32.0008    4.2587 C.2       9 UNK         0.5033 
     58 O          30.9465   31.1166    3.4291 O.2       9 UNK        -0.5390 
     59 N          31.3008   31.7522    5.5681 N.am      10 UNK        -0.4215 
     60 CA         31.2392   30.4202    6.1776 C.3       10 UNK         0.0240 
     61 CB         30.8861   30.5700    7.6695 C.3       10 UNK        -0.1982 
     62 C          32.5430   29.6263    5.9479 C.2       10 UNK         0.4970 
     63 O          33.2273   29.2756    6.9112 O.2       10 UNK        -0.4916 
     64 N          32.8614   29.3794    4.6711 N.am      11 UNK        -0.4279 
     65 CA         34.0441   28.6523    4.1826 C.3       11 UNK         0.1003 
     66 C          35.3859   29.3741    4.5113 C.2       11 UNK         0.5709 
     67 N          35.4740   30.6861    4.3309 N.am      11 UNK        -0.7358 
     68 O          36.3627   28.7524    4.9250 O.2       11 UNK        -0.4999 
     69 C69        34.0434   27.1487    4.5882 C.3       12 UNK        -0.0954 
     70 S70        32.5431   26.2596    4.0606 S.3       12 UNK        -0.2268 
     71 C71        32.9309   24.6013    4.7001 C.3       12 UNK         0.0203 
     72 H72        32.1837   26.2554   -2.6200 H         1 UNK         0.0888 
     73 H73        33.1156   26.3784   -1.1142 H         1 UNK         0.0888 
     74 H74        33.8928   25.8465   -2.5993 H         1 UNK         0.0888 
     75 H75        31.2808   23.0881   -0.8554 H         1 UNK         0.3017 
     76 H76        30.8999   25.9323   -0.3517 H         1 UNK         0.0873 
     77 H77        28.7982   25.1451    0.7843 H         1 UNK         0.0745 
     78 H78        30.2759   24.6359    1.4872 H         1 UNK         0.0745 
     79 H79        30.0576   20.7632    1.3866 H         1 UNK         0.0705 
     80 H80        31.2715   21.8753    0.8165 H         1 UNK         0.0705 
     81 H81        32.3279   23.4159    2.3391 H         1 UNK         0.1334 
     82 H82        31.0161   23.6633    6.4090 H         1 UNK         0.1417 
     83 H83        28.8311   21.2699    3.5948 H         1 UNK         0.1562 
     84 H84        29.2022   22.3133    7.1970 H         1 UNK         0.0748 
     85 H85        28.6689   20.9679    6.2209 H         1 UNK         0.0748 
     86 H86        28.6446   24.7466    6.4481 H         1 UNK         0.0940 
     87 H87        26.9696   25.2092    6.4787 H         1 UNK         0.0940 
     88 H88        28.5020   24.5261    3.9126 H         1 UNK         0.0703 
     89 H89        26.5772   24.5692    2.8648 H         1 UNK         0.3081 
     90 H90        24.3584   24.5961    2.5563 H         1 UNK         0.0719 
     91 H91        22.7408   26.7853    3.9637 H         1 UNK         0.0809 
     92 H92        22.1050   25.5194    2.9129 H         1 UNK         0.0809 
     93 H93        22.8141   25.1018    4.4636 H         1 UNK         0.0809 
     94 H94        23.6226   27.2021    1.7095 H         1 UNK         0.2990 
     95 H95        24.4001   27.4099   -0.7969 H         1 UNK         0.0690 
     96 H96        25.0802   29.7929   -0.4396 H         1 UNK         0.0788 
     97 H97        26.0375   29.3334    0.9598 H         1 UNK         0.0788 
     98 H98        24.2836   29.1807    0.9963 H         1 UNK         0.0788 
     99 H99        27.3567   27.6515   -0.4704 H         1 UNK         0.2993 
    100 H100       27.8986   26.2426   -3.6705 H         1 UNK         0.0949 
    101 H101       27.8825   28.6569   -4.2294 H         1 UNK         0.0767 
    102 H102       28.6038   29.0593   -2.6777 H         1 UNK         0.0767 
    103 H103       29.5228   28.1404   -3.8691 H         1 UNK         0.0767 
    104 H104       29.0150   27.0608   -1.0028 H         1 UNK         0.3013 
    105 H105       28.0593   26.7049    2.3708 H         1 UNK         0.3121 
    106 H106       29.9506   28.5980    3.4647 H         1 UNK         0.0774 
    107 H107       28.3215   30.5736    3.0611 H         1 UNK         0.0815 
    108 H108       27.0159   29.3960    3.0189 H         1 UNK         0.0815 
    109 H109       27.9707   29.6056    4.4789 H         1 UNK         0.0815 
    110 H110       30.4933   30.2547    1.8944 H         1 UNK         0.2987 
    111 H111       29.7046   30.1598   -0.8387 H         1 UNK         0.0949 
    112 H112       31.0525   28.1495   -1.1131 H         1 UNK         0.0806 
    113 H113       32.0071   29.4603   -1.7572 H         1 UNK         0.0806 
    114 H114       32.3813   28.7988   -0.1636 H         1 UNK         0.0806 
    115 H115       33.0427   30.7525    0.0138 H         1 UNK         0.3010 
    116 H116       32.7653   33.6818   -0.0213 H         1 UNK         0.0829 
    117 H117       34.7632   32.6340   -1.0578 H         1 UNK         0.0813 
    118 H118       35.2402   33.5864    0.3388 H         1 UNK         0.0813 
    119 H119       35.1734   31.8343    0.4591 H         1 UNK         0.0813 
    120 H120       31.2085   33.6867    1.6932 H         1 UNK         0.3038 
    121 H121       30.3739   33.8952    3.7355 H         1 UNK         0.0769 
    122 H122       33.2036   33.8698    4.9310 H         1 UNK         0.0811 
    123 H123       31.7346   34.4836    5.6848 H         1 UNK         0.0811 
    124 H124       32.4132   35.3088    4.2994 H         1 UNK         0.0811 
    125 H125       31.5301   32.5192    6.1833 H         1 UNK         0.3204 
    126 H126       30.4324   29.8538    5.7060 H         1 UNK         0.0748 
    127 H127       29.9316   31.0799    7.8014 H         1 UNK         0.0771 
    128 H128       30.7974   29.5938    8.1482 H         1 UNK         0.0771 
    129 H129       31.6465   31.1330    8.2122 H         1 UNK         0.0771 
    130 H130       32.2568   29.7802    3.9618 H         1 UNK         0.2980 
    131 H131       33.9756   28.6825    3.0947 H         1 UNK         0.0545 
    132 H132       36.3436   31.1455    4.5466 H         1 UNK         0.3459 
    133 H133       34.7236   31.2235    3.9061 H         1 UNK         0.3459 
    134 H134       34.8999   26.6393    4.1430 H         1 UNK         0.0616 
    135 H135       34.1508   27.0419    5.6688 H         1 UNK         0.0616 
    136 H136       33.8534   24.2412    4.2422 H         1 UNK         0.0634 
    137 H137       33.1172   24.6624    5.7734 H         1 UNK         0.0634 
@<TRIPOS>BOND
     1    1    2 1    
     2    1   72 1    
     3    1   73 1    
     4    1   74 1    
     5    2    3 2    
     6    2    4 am   BACKBONE|DICT|INTERRES
     7    4    5 1    
     8    4   75 1    
     9    5    6 1    
    10    5   35 1    
    11    5   76 1    
    12    6    7 1    
    13    6   77 1    
    14    6   78 1    
    15    7    8 1    
    16    8    9 1    
    17    8   79 1    
    18    8   80 1    
    19    9   10 ar   
    20    9   14 ar   
    21   10   11 ar   
    22   10   81 1    
    23   11   12 ar   
    24   11   71 1    
    25   12   13 ar   
    26   12   82 1    
    27   13   14 ar   
    28   13   15 1    
    29   14   83 1    
    30   15   16 1    
    31   15   84 1    
    32   15   85 1    
    33   16   17 1    
    34   17   18 1    
    35   17   86 1    
    36   17   87 1    
    37   18   19 1    
    38   18   37 1    
    39   18   88 1    
    40   19   20 am   BACKBONE|DICT|INTERRES
    41   19   89 1    
    42   20   21 2    
    43   20   22 1    
    44   22   23 1    
    45   22   24 1    
    46   22   90 1    
    47   23   91 1    
    48   23   92 1    
    49   23   93 1    
    50   24   25 am   BACKBONE|DICT|INTERRES
    51   24   94 1    
    52   25   26 2    
    53   25   27 1    
    54   27   28 1    
    55   27   29 1    
    56   27   95 1    
    57   28   96 1    
    58   28   97 1    
    59   28   98 1    
    60   29   30 am   BACKBONE|DICT|INTERRES
    61   29   99 1    
    62   30   31 2    
    63   30   32 1    
    64   32   33 1    
    65   32   34 1    
    66   32  100 1    
    67   33  101 1    
    68   33  102 1    
    69   33  103 1    
    70   34   35 am   BACKBONE|DICT|INTERRES
    71   34  104 1    
    72   35   36 2    
    73   37   38 2    
    74   37   39 am   BACKBONE|DICT|INTERRES
    75   39   40 1    
    76   39  105 1    
    77   40   41 1    
    78   40   42 1    
    79   40  106 1    
    80   41  107 1    
    81   41  108 1    
    82   41  109 1    
    83   42   43 2    
    84   42   44 am   BACKBONE|DICT|INTERRES
    85   44   45 1    
    86   44  110 1    
    87   45   46 1    
    88   45   47 1    
    89   45  111 1    
    90   46  112 1    
    91   46  113 1    
    92   46  114 1    
    93   47   48 2    
    94   47   49 am   BACKBONE|DICT|INTERRES
    95   49   50 1    
    96   49  115 1    
    97   50   51 1    
    98   50   52 1    
    99   50  116 1    
   100   51  117 1    
   101   51  118 1    
   102   51  119 1    
   103   52   53 2    
   104   52   54 am   BACKBONE|DICT|INTERRES
   105   54   55 1    
   106   54  120 1    
   107   55   56 1    
   108   55   57 1    
   109   55  121 1    
   110   56  122 1    
   111   56  123 1    
   112   56  124 1    
   113   57   58 2    
   114   57   59 am   BACKBONE|DICT|INTERRES
   115   59   60 1    
   116   59  125 1    
   117   60   61 1    
   118   60   62 1    
   119   60  126 1    
   120   61  127 1    
   121   61  128 1    
   122   61  129 1    
   123   62   63 2    
   124   62   64 am   BACKBONE|DICT|INTERRES
   125   64   65 1    
   126   64  130 1    
   127   65   66 1    
   128   65   69 1    
   129   65  131 1    
   130   66   67 am   BACKBONE|DICT|INTERRES
   131   66   68 2    
   132   67  132 1    
   133   67  133 1    
   134   69   70 1    
   135   69  134 1    
   136   69  135 1    
   137   70   71 1    
   138   71  136 1    
   139   71  137 1    
@<TRIPOS>SUBSTRUCTURE
     1 UNK         1 GROUP             0       ****    0 ROOT    
