@<TRIPOS>MOLECULE
3R136
137   139    1
SMALL
USER_CHARGES


@<TRIPOS>ATOM
      1 CA         33.0970   21.2638    3.8833 C.3       0 UNK        -0.1979 
      2 C          31.6947   20.7012    3.7001 C.2       0 UNK         0.4864 
      3 O          31.3239   19.7440    4.3818 O.2       0 UNK        -0.5359 
      4 N          30.9210   21.2866    2.7785 N.am      1 UNK        -0.4318 
      5 CA         29.5127   20.9706    2.5217 C.3       1 UNK         0.0824 
      6 C6         29.1449   21.2132    1.0315 C.3       12 UNK        -0.0944 
      7 S7         29.3564   22.9428    0.4911 S.3       12 UNK        -0.2672 
      8 C8         30.9432   22.8661   -0.3957 C.3       12 UNK         0.0333 
      9 C9         31.6639   24.2018   -0.3142 C.ar      12 UNK        -0.0807 
     10 C10        32.2158   24.6122    0.8998 C.ar      12 UNK        -0.0894 
     11 C11        32.8743   25.8421    1.0174 C.ar      12 UNK        -0.0804 
     12 C12        32.9898   26.6534   -0.1195 C.ar      12 UNK        -0.0824 
     13 C13        32.4637   26.2439   -1.3519 C.ar      12 UNK        -0.0762 
     14 C14        31.7945   25.0186   -1.4385 C.ar      12 UNK        -0.0782 
     15 C15        32.6826   27.0772   -2.6103 C.3       12 UNK         0.0230 
     16 S16        31.1255   27.5098   -3.4598 S.3       12 UNK        -0.2608 
     17 C17        30.7901   29.2016   -2.8664 C.3       12 UNK        -0.0989 
     18 CA         29.5528   29.2760   -1.9402 C.3       5 UNK         0.0716 
     19 N          29.7575   28.5009   -0.7132 N.am      5 UNK        -0.4135 
     20 C          28.9371   28.4369    0.3436 C.2       4 UNK         0.5031 
     21 O          27.8433   29.0048    0.4188 O.2       4 UNK        -0.5229 
     22 CA         29.4922   27.6798    1.5580 C.3       4 UNK         0.0329 
     23 CB         30.3642   28.6418    2.3803 C.3       4 UNK        -0.2001 
     24 N          28.4503   27.1256    2.4244 N.am      4 UNK        -0.4303 
     25 C          27.5484   26.2062    2.0591 C.2       3 UNK         0.5044 
     26 O          27.4857   25.6938    0.9403 O.2       3 UNK        -0.5152 
     27 CA         26.5309   25.7911    3.1235 C.3       3 UNK         0.0319 
     28 CB         25.1304   26.3431    2.8007 C.3       3 UNK        -0.2001 
     29 N          26.4966   24.3326    3.1997 N.am      3 UNK        -0.4354 
     30 C          26.1777   23.6393    4.2992 C.2       2 UNK         0.4964 
     31 O          25.8568   24.1657    5.3661 O.2       2 UNK        -0.5047 
     32 CA         26.2259   22.1024    4.2158 C.3       2 UNK         0.0288 
     33 CB         24.8581   21.5476    3.7846 C.3       2 UNK        -0.2113 
     34 N          27.2661   21.5636    3.3327 N.am      2 UNK        -0.4145 
     35 C          28.5866   21.7046    3.5235 C.2       1 UNK         0.5006 
     36 O          29.0685   22.3610    4.4514 O.2       1 UNK        -0.5103 
     37 C          29.2187   30.7464   -1.6187 C.2       5 UNK         0.5055 
     38 O          30.0783   31.4585   -1.0957 O.2       5 UNK        -0.5220 
     39 N          27.9622   31.1436   -1.8735 N.am      6 UNK        -0.4450 
     40 CA         27.3722   32.4626   -1.5953 C.3       6 UNK         0.0367 
     41 CB         27.9759   33.5222   -2.5420 C.3       6 UNK        -0.1929 
     42 C          27.4490   32.9006   -0.1141 C.2       6 UNK         0.5070 
     43 O          27.3766   34.0987    0.1629 O.2       6 UNK        -0.5237 
     44 N          27.6210   31.9355    0.8055 N.am      7 UNK        -0.4739 
     45 CA         27.9094   32.1098    2.2359 C.3       7 UNK         0.0276 
     46 CB         26.6892   32.7009    2.9733 C.3       7 UNK        -0.1927 
     47 C          29.2136   32.8939    2.5137 C.2       7 UNK         0.5013 
     48 O          29.3329   33.5225    3.5663 O.2       7 UNK        -0.5193 
     49 N          30.1717   32.8514    1.5744 N.am      8 UNK        -0.4253 
     50 CA         31.4187   33.6243    1.6123 C.3       8 UNK         0.0242 
     51 CB         31.8646   33.9085    0.1668 C.3       8 UNK        -0.2000 
     52 C          32.5530   32.9574    2.4158 C.2       8 UNK         0.4948 
     53 O          33.6696   33.4790    2.4136 O.2       8 UNK        -0.5275 
     54 N          32.2756   31.8280    3.0754 N.am      9 UNK        -0.4246 
     55 CA         33.2169   31.0598    3.8848 C.3       9 UNK         0.0261 
     56 CB         34.0231   30.1068    2.9809 C.3       9 UNK        -0.1959 
     57 C          32.4496   30.3300    4.9965 C.2       9 UNK         0.5033 
     58 O          31.2181   30.3810    5.0273 O.2       9 UNK        -0.5390 
     59 N          33.1946   29.6866    5.9038 N.am      10 UNK        -0.4215 
     60 CA         32.6874   29.0827    7.1412 C.3       10 UNK         0.0240 
     61 CB         33.8787   28.8104    8.0767 C.3       10 UNK        -0.1982 
     62 C          31.8399   27.8058    6.9722 C.2       10 UNK         0.4970 
     63 O          31.2012   27.3997    7.9446 O.2       10 UNK        -0.4916 
     64 N          31.8684   27.1748    5.7900 N.am      11 UNK        -0.4279 
     65 CA         31.1308   25.9353    5.4864 C.3       11 UNK         0.1003 
     66 C          29.5876   26.0887    5.6098 C.2       11 UNK         0.5709 
     67 N          28.8823   25.0183    5.9429 N.am      11 UNK        -0.7358 
     68 O          29.0207   27.1482    5.3470 O.2       11 UNK        -0.4999 
     69 C69        31.5006   25.3387    4.1018 C.3       12 UNK        -0.0954 
     70 S70        33.2960   25.2237    3.7861 S.3       12 UNK        -0.2268 
     71 C71        33.4845   26.3292    2.3376 C.3       12 UNK         0.0203 
     72 H72        33.8363   20.4673    3.8034 H         1 UNK         0.0888 
     73 H73        33.3346   22.0206    3.1358 H         1 UNK         0.0888 
     74 H74        33.1909   21.7205    4.8682 H         1 UNK         0.0888 
     75 H75        31.2669   22.0917    2.2809 H         1 UNK         0.3017 
     76 H76        29.3672   19.9051    2.7131 H         1 UNK         0.0873 
     77 H77        29.7498   20.5637    0.3966 H         1 UNK         0.0745 
     78 H78        28.1146   20.9171    0.8294 H         1 UNK         0.0745 
     79 H79        31.5826   22.0928    0.0322 H         1 UNK         0.0705 
     80 H80        30.7608   22.5778   -1.4321 H         1 UNK         0.0705 
     81 H81        32.1146   23.9588    1.7510 H         1 UNK         0.1334 
     82 H82        33.5175   27.5952   -0.0485 H         1 UNK         0.1417 
     83 H83        31.3882   24.6962   -2.3879 H         1 UNK         0.1562 
     84 H84        33.2912   26.4908   -3.3001 H         1 UNK         0.0748 
     85 H85        33.2634   27.9753   -2.3963 H         1 UNK         0.0748 
     86 H86        30.6368   29.8240   -3.7506 H         1 UNK         0.0940 
     87 H87        31.6714   29.6101   -2.3679 H         1 UNK         0.0940 
     88 H88        28.7036   28.8323   -2.4637 H         1 UNK         0.0703 
     89 H89        30.6277   27.9912   -0.6739 H         1 UNK         0.3081 
     90 H90        30.1029   26.8479    1.2017 H         1 UNK         0.0719 
     91 H91        29.7825   29.4793    2.7642 H         1 UNK         0.0809 
     92 H92        30.8214   28.1516    3.2366 H         1 UNK         0.0809 
     93 H93        31.1683   29.0578    1.7733 H         1 UNK         0.0809 
     94 H94        28.4372   27.4604    3.3817 H         1 UNK         0.2990 
     95 H95        26.8476   26.1966    4.0858 H         1 UNK         0.0690 
     96 H96        25.1513   27.4303    2.7140 H         1 UNK         0.0788 
     97 H97        24.4142   26.0930    3.5835 H         1 UNK         0.0788 
     98 H98        24.7501   25.9467    1.8584 H         1 UNK         0.0788 
     99 H99        26.7949   23.8464    2.3637 H         1 UNK         0.2993 
    100 H100       26.4364   21.7374    5.2236 H         1 UNK         0.0949 
    101 H101       24.8382   20.4584    3.8296 H         1 UNK         0.0767 
    102 H102       24.0653   21.9107    4.4405 H         1 UNK         0.0767 
    103 H103       24.6025   21.8483    2.7677 H         1 UNK         0.0767 
    104 H104       26.9457   21.0132    2.5494 H         1 UNK         0.3013 
    105 H105       27.3198   30.4583   -2.2480 H         1 UNK         0.3121 
    106 H106       26.3094   32.3775   -1.8264 H         1 UNK         0.0774 
    107 H107       27.4521   34.4747   -2.4530 H         1 UNK         0.0815 
    108 H108       29.0275   33.7080   -2.3201 H         1 UNK         0.0815 
    109 H109       27.9024   33.2123   -3.5843 H         1 UNK         0.0815 
    110 H110       27.6492   30.9718    0.4800 H         1 UNK         0.2987 
    111 H111       28.0715   31.1074    2.6332 H         1 UNK         0.0949 
    112 H112       26.5019   33.7352    2.6834 H         1 UNK         0.0806 
    113 H113       25.7860   32.1258    2.7700 H         1 UNK         0.0806 
    114 H114       26.8414   32.6898    4.0533 H         1 UNK         0.0806 
    115 H115       30.0072   32.3144    0.7270 H         1 UNK         0.3010 
    116 H116       31.2169   34.5850    2.0908 H         1 UNK         0.0829 
    117 H117       31.0669   34.3756   -0.4114 H         1 UNK         0.0813 
    118 H118       32.7191   34.5860    0.1440 H         1 UNK         0.0813 
    119 H119       32.1607   32.9943   -0.3491 H         1 UNK         0.0813 
    120 H120       31.3171   31.5088    3.1310 H         1 UNK         0.3038 
    121 H121       33.9057   31.7473    4.3809 H         1 UNK         0.0769 
    122 H122       34.6427   29.4180    3.5558 H         1 UNK         0.0811 
    123 H123       34.6938   30.6677    2.3296 H         1 UNK         0.0811 
    124 H124       33.3733   29.5157    2.3395 H         1 UNK         0.0811 
    125 H125       34.1987   29.6931    5.7932 H         1 UNK         0.3204 
    126 H126       32.0429   29.8201    7.6247 H         1 UNK         0.0748 
    127 H127       33.5438   28.4041    9.0324 H         1 UNK         0.0771 
    128 H128       34.5750   28.0909    7.6439 H         1 UNK         0.0771 
    129 H129       34.4307   29.7249    8.2954 H         1 UNK         0.0771 
    130 H130       32.4213   27.5640    5.0440 H         1 UNK         0.2980 
    131 H131       31.4414   25.2117    6.2428 H         1 UNK         0.0545 
    132 H132       27.8767   25.0860    5.9975 H         1 UNK         0.3459 
    133 H133       29.3191   24.1125    6.0326 H         1 UNK         0.3459 
    134 H134       31.0930   24.3295    4.0192 H         1 UNK         0.0616 
    135 H135       31.0313   25.9036    3.2982 H         1 UNK         0.0616 
    136 H136       34.5505   26.5013    2.1839 H         1 UNK         0.0634 
    137 H137       33.0482   27.2927    2.5924 H         1 UNK         0.0634 
@<TRIPOS>BOND
     1    1    2 1    
     2    1   72 1    
     3    1   73 1    
     4    1   74 1    
     5    2    3 2    
     6    2    4 am   BACKBONE|DICT|INTERRES
     7    4    5 1    
     8    4   75 1    
     9    5    6 1    
    10    5   35 1    
    11    5   76 1    
    12    6    7 1    
    13    6   77 1    
    14    6   78 1    
    15    7    8 1    
    16    8    9 1    
    17    8   79 1    
    18    8   80 1    
    19    9   10 ar   
    20    9   14 ar   
    21   10   11 ar   
    22   10   81 1    
    23   11   12 ar   
    24   11   71 1    
    25   12   13 ar   
    26   12   82 1    
    27   13   14 ar   
    28   13   15 1    
    29   14   83 1    
    30   15   16 1    
    31   15   84 1    
    32   15   85 1    
    33   16   17 1    
    34   17   18 1    
    35   17   86 1    
    36   17   87 1    
    37   18   19 1    
    38   18   37 1    
    39   18   88 1    
    40   19   20 am   BACKBONE|DICT|INTERRES
    41   19   89 1    
    42   20   21 2    
    43   20   22 1    
    44   22   23 1    
    45   22   24 1    
    46   22   90 1    
    47   23   91 1    
    48   23   92 1    
    49   23   93 1    
    50   24   25 am   BACKBONE|DICT|INTERRES
    51   24   94 1    
    52   25   26 2    
    53   25   27 1    
    54   27   28 1    
    55   27   29 1    
    56   27   95 1    
    57   28   96 1    
    58   28   97 1    
    59   28   98 1    
    60   29   30 am   BACKBONE|DICT|INTERRES
    61   29   99 1    
    62   30   31 2    
    63   30   32 1    
    64   32   33 1    
    65   32   34 1    
    66   32  100 1    
    67   33  101 1    
    68   33  102 1    
    69   33  103 1    
    70   34   35 am   BACKBONE|DICT|INTERRES
    71   34  104 1    
    72   35   36 2    
    73   37   38 2    
    74   37   39 am   BACKBONE|DICT|INTERRES
    75   39   40 1    
    76   39  105 1    
    77   40   41 1    
    78   40   42 1    
    79   40  106 1    
    80   41  107 1    
    81   41  108 1    
    82   41  109 1    
    83   42   43 2    
    84   42   44 am   BACKBONE|DICT|INTERRES
    85   44   45 1    
    86   44  110 1    
    87   45   46 1    
    88   45   47 1    
    89   45  111 1    
    90   46  112 1    
    91   46  113 1    
    92   46  114 1    
    93   47   48 2    
    94   47   49 am   BACKBONE|DICT|INTERRES
    95   49   50 1    
    96   49  115 1    
    97   50   51 1    
    98   50   52 1    
    99   50  116 1    
   100   51  117 1    
   101   51  118 1    
   102   51  119 1    
   103   52   53 2    
   104   52   54 am   BACKBONE|DICT|INTERRES
   105   54   55 1    
   106   54  120 1    
   107   55   56 1    
   108   55   57 1    
   109   55  121 1    
   110   56  122 1    
   111   56  123 1    
   112   56  124 1    
   113   57   58 2    
   114   57   59 am   BACKBONE|DICT|INTERRES
   115   59   60 1    
   116   59  125 1    
   117   60   61 1    
   118   60   62 1    
   119   60  126 1    
   120   61  127 1    
   121   61  128 1    
   122   61  129 1    
   123   62   63 2    
   124   62   64 am   BACKBONE|DICT|INTERRES
   125   64   65 1    
   126   64  130 1    
   127   65   66 1    
   128   65   69 1    
   129   65  131 1    
   130   66   67 am   BACKBONE|DICT|INTERRES
   131   66   68 2    
   132   67  132 1    
   133   67  133 1    
   134   69   70 1    
   135   69  134 1    
   136   69  135 1    
   137   70   71 1    
   138   71  136 1    
   139   71  137 1    
@<TRIPOS>SUBSTRUCTURE
     1 UNK         1 GROUP             0       ****    0 ROOT    
