@<TRIPOS>MOLECULE
3R136
137   139    1
SMALL
USER_CHARGES


@<TRIPOS>ATOM
      1 CA         25.9480   21.9587    1.5208 C.3       0 UNK        -0.1979 
      2 C          27.0888   22.8004    2.0712 C.2       0 UNK         0.4864 
      3 O          26.9897   23.2976    3.1939 O.2       0 UNK        -0.5359 
      4 N          28.1627   22.9747    1.2864 N.am      1 UNK        -0.4318 
      5 CA         29.3728   23.7380    1.6231 C.3       1 UNK         0.0824 
      6 C6         30.2555   23.0220    2.6873 C.3       12 UNK        -0.0944 
      7 S7         30.9772   21.4876    2.0068 S.3       12 UNK        -0.2672 
      8 C8         32.6960   21.9863    1.6421 C.3       12 UNK         0.0333 
      9 C9         32.7650   23.2966    0.8692 C.ar      12 UNK        -0.0807 
     10 C10        33.2424   24.4522    1.4944 C.ar      12 UNK        -0.0894 
     11 C11        33.2460   25.6745    0.8191 C.ar      12 UNK        -0.0804 
     12 C12        32.7582   25.7398   -0.4888 C.ar      12 UNK        -0.0824 
     13 C13        32.2822   24.5895   -1.1279 C.ar      12 UNK        -0.0762 
     14 C14        32.3128   23.3654   -0.4522 C.ar      12 UNK        -0.0782 
     15 C15        31.7258   24.6651   -2.5428 C.3       12 UNK         0.0230 
     16 S16        29.9122   24.4597   -2.5505 S.3       12 UNK        -0.2608 
     17 C17        29.3325   25.9120   -3.5089 C.3       12 UNK        -0.0989 
     18 CA         28.5801   26.9710   -2.6537 C.3       5 UNK         0.0716 
     19 N          27.4848   26.3390   -1.9010 N.am      5 UNK        -0.4135 
     20 C          26.4207   26.9217   -1.3336 C.2       4 UNK         0.5031 
     21 O          26.2213   28.1370   -1.3497 O.2       4 UNK        -0.5229 
     22 CA         25.4178   26.0117   -0.6105 C.3       4 UNK         0.0329 
     23 CB         25.4956   24.5294   -1.0309 C.3       4 UNK        -0.2001 
     24 N          25.6177   26.1260    0.8349 N.am      4 UNK        -0.4303 
     25 C          24.6338   26.2665    1.7364 C.2       3 UNK         0.5044 
     26 O          23.4429   26.3339    1.4272 O.2       3 UNK        -0.5152 
     27 CA         25.0028   26.3246    3.2343 C.3       3 UNK         0.0319 
     28 CB         24.2700   25.2225    4.0201 C.3       3 UNK        -0.2001 
     29 N          26.4420   26.1959    3.4752 N.am      3 UNK        -0.4354 
     30 C          27.2808   27.2251    3.6690 C.2       2 UNK         0.4964 
     31 O          26.9045   28.3920    3.7739 O.2       2 UNK        -0.5047 
     32 CA         28.7946   26.9244    3.7423 C.3       2 UNK         0.0288 
     33 CB         29.3093   27.0583    5.1829 C.3       2 UNK        -0.2113 
     34 N          29.1817   25.6088    3.2253 N.am      2 UNK        -0.4145 
     35 C          29.0162   25.1999    1.9600 C.2       1 UNK         0.5006 
     36 O          28.5300   25.9106    1.0794 O.2       1 UNK        -0.5103 
     37 C          29.5307   27.8362   -1.7843 C.2       5 UNK         0.5055 
     38 O          30.7412   27.8354   -2.0092 O.2       5 UNK        -0.5220 
     39 N          28.9680   28.5498   -0.8043 N.am      6 UNK        -0.4450 
     40 CA         29.6470   29.2641    0.2704 C.3       6 UNK         0.0367 
     41 CB         28.5768   29.9017    1.1696 C.3       6 UNK        -0.1929 
     42 C          30.6330   30.3334   -0.2233 C.2       6 UNK         0.5070 
     43 O          30.2208   31.2799   -0.8974 O.2       6 UNK        -0.5237 
     44 N          31.9034   30.1935    0.1741 N.am      7 UNK        -0.4739 
     45 CA         32.9219   31.2417    0.0459 C.3       7 UNK         0.0276 
     46 CB         34.3165   30.5957    0.0517 C.3       7 UNK        -0.1927 
     47 C          32.8064   32.2847    1.1742 C.2       7 UNK         0.5013 
     48 O          33.2501   33.4206    1.0051 O.2       7 UNK        -0.5193 
     49 N          32.2064   31.8729    2.2955 N.am      8 UNK        -0.4253 
     50 CA         31.9075   32.6386    3.4962 C.3       8 UNK         0.0242 
     51 CB         33.1820   32.8430    4.3375 C.3       8 UNK        -0.2000 
     52 C          30.8535   31.8395    4.2720 C.2       8 UNK         0.4948 
     53 O          30.7083   30.6359    4.0359 O.2       8 UNK        -0.5275 
     54 N          30.1629   32.5060    5.2057 N.am      9 UNK        -0.4246 
     55 CA         29.0442   31.9660    5.9937 C.3       9 UNK         0.0261 
     56 CB         28.4475   33.0982    6.8472 C.3       9 UNK        -0.1959 
     57 C          29.3663   30.7418    6.8767 C.2       9 UNK         0.5033 
     58 O          28.4353   30.0813    7.3396 O.2       9 UNK        -0.5390 
     59 N          30.6547   30.4570    7.0955 N.am      10 UNK        -0.4215 
     60 CA         31.1526   29.2797    7.8020 C.3       10 UNK         0.0240 
     61 CB         31.2576   29.5800    9.3113 C.3       10 UNK        -0.1982 
     62 C          32.4782   28.8126    7.1777 C.2       10 UNK         0.4970 
     63 O          33.4224   28.5177    7.9130 O.2       10 UNK        -0.4916 
     64 N          32.5485   28.7864    5.8371 N.am      11 UNK        -0.4279 
     65 CA         33.7320   28.3322    5.0881 C.3       11 UNK         0.1003 
     66 C          34.0770   26.8261    5.2905 C.2       11 UNK         0.5709 
     67 N          35.3199   26.4392    5.0341 N.am      11 UNK        -0.7358 
     68 O          33.2322   26.0062    5.6467 O.2       11 UNK        -0.4999 
     69 C69        33.6678   28.7525    3.5934 C.3       12 UNK        -0.0954 
     70 S70        32.5627   27.7505    2.5348 S.3       12 UNK        -0.2268 
     71 C71        33.8056   26.9108    1.5019 C.3       12 UNK         0.0203 
     72 H72        26.1364   21.6325    0.4982 H         1 UNK         0.0888 
     73 H73        25.8056   21.0732    2.1395 H         1 UNK         0.0888 
     74 H74        25.0219   22.5327    1.5299 H         1 UNK         0.0888 
     75 H75        28.1780   22.5418    0.3741 H         1 UNK         0.3017 
     76 H76        29.9427   23.8096    0.6982 H         1 UNK         0.0873 
     77 H77        31.0638   23.6642    3.0394 H         1 UNK         0.0745 
     78 H78        29.6711   22.7625    3.5716 H         1 UNK         0.0745 
     79 H79        33.2465   22.0623    2.5812 H         1 UNK         0.0705 
     80 H80        33.1814   21.1977    1.0654 H         1 UNK         0.0705 
     81 H81        33.5999   24.4073    2.5145 H         1 UNK         0.1334 
     82 H82        32.7526   26.6876   -1.0087 H         1 UNK         0.1417 
     83 H83        31.9351   22.4750   -0.9369 H         1 UNK         0.1562 
     84 H84        32.1738   23.8799   -3.1533 H         1 UNK         0.0748 
     85 H85        32.0104   25.6092   -3.0083 H         1 UNK         0.0748 
     86 H86        28.6538   25.5348   -4.2754 H         1 UNK         0.0940 
     87 H87        30.1540   26.3634   -4.0678 H         1 UNK         0.0940 
     88 H88        28.1180   27.6725   -3.3513 H         1 UNK         0.0703 
     89 H89        27.5979   25.3445   -1.7707 H         1 UNK         0.3081 
     90 H90        24.4287   26.3842   -0.8851 H         1 UNK         0.0719 
     91 H91        26.4395   24.0678   -0.7428 H         1 UNK         0.0809 
     92 H92        24.6923   23.9540   -0.5708 H         1 UNK         0.0809 
     93 H93        25.3852   24.4193   -2.1107 H         1 UNK         0.0809 
     94 H94        26.5865   26.1298    1.1436 H         1 UNK         0.2990 
     95 H95        24.6490   27.2869    3.6095 H         1 UNK         0.0690 
     96 H96        24.5210   25.2576    5.0803 H         1 UNK         0.0788 
     97 H97        24.5173   24.2275    3.6498 H         1 UNK         0.0788 
     98 H98        23.1882   25.3379    3.9417 H         1 UNK         0.0788 
     99 H99        26.8168   25.2517    3.4225 H         1 UNK         0.2993 
    100 H100       29.2989   27.6767    3.1321 H         1 UNK         0.0949 
    101 H101       30.3891   26.9167    5.2331 H         1 UNK         0.0767 
    102 H102       29.0931   28.0516    5.5757 H         1 UNK         0.0767 
    103 H103       28.8409   26.3333    5.8495 H         1 UNK         0.0767 
    104 H104       29.5430   24.9508    3.8999 H         1 UNK         0.3013 
    105 H105       27.9530   28.5338   -0.7647 H         1 UNK         0.3121 
    106 H106       30.1848   28.5151    0.8543 H         1 UNK         0.0774 
    107 H107       29.0179   30.3216    2.0728 H         1 UNK         0.0815 
    108 H108       28.0460   30.7065    0.6594 H         1 UNK         0.0815 
    109 H109       27.8347   29.1679    1.4781 H         1 UNK         0.0815 
    110 H110       32.1612   29.3675    0.6981 H         1 UNK         0.2987 
    111 H111       32.7867   31.7608   -0.9058 H         1 UNK         0.0949 
    112 H112       34.5290   30.0970    0.9974 H         1 UNK         0.0806 
    113 H113       34.4177   29.8615   -0.7479 H         1 UNK         0.0806 
    114 H114       35.0924   31.3475   -0.0994 H         1 UNK         0.0806 
    115 H115       31.8296   30.9330    2.3326 H         1 UNK         0.3010 
    116 H116       31.4852   33.6032    3.2075 H         1 UNK         0.0829 
    117 H117       33.9482   33.3776    3.7760 H         1 UNK         0.0813 
    118 H118       32.9730   33.4315    5.2315 H         1 UNK         0.0813 
    119 H119       33.6103   31.8948    4.6641 H         1 UNK         0.0813 
    120 H120       30.3707   33.4847    5.3469 H         1 UNK         0.3038 
    121 H121       28.2824   31.6390    5.2826 H         1 UNK         0.0769 
    122 H122       29.1734   33.4902    7.5606 H         1 UNK         0.0811 
    123 H123       27.5870   32.7470    7.4189 H         1 UNK         0.0811 
    124 H124       28.1023   33.9257    6.2270 H         1 UNK         0.0811 
    125 H125       31.3523   31.0511    6.6701 H         1 UNK         0.3204 
    126 H126       30.4508   28.4538    7.6685 H         1 UNK         0.0748 
    127 H127       31.5952   28.7027    9.8647 H         1 UNK         0.0771 
    128 H128       31.9627   30.3876    9.5118 H         1 UNK         0.0771 
    129 H129       30.2916   29.8685    9.7260 H         1 UNK         0.0771 
    130 H130       31.7418   29.0451    5.2824 H         1 UNK         0.2980 
    131 H131       34.5688   28.8854    5.5199 H         1 UNK         0.0545 
    132 H132       36.0238   27.0978    4.7404 H         1 UNK         0.3459 
    133 H133       35.5619   25.4684    5.1530 H         1 UNK         0.3459 
    134 H134       33.3529   29.7908    3.5214 H         1 UNK         0.0616 
    135 H135       34.6745   28.7401    3.1732 H         1 UNK         0.0616 
    136 H136       34.6569   26.6180    2.1182 H         1 UNK         0.0634 
    137 H137       34.1918   27.6114    0.7608 H         1 UNK         0.0634 
@<TRIPOS>BOND
     1    1    2 1    
     2    1   72 1    
     3    1   73 1    
     4    1   74 1    
     5    2    3 2    
     6    2    4 am   BACKBONE|DICT|INTERRES
     7    4    5 1    
     8    4   75 1    
     9    5    6 1    
    10    5   35 1    
    11    5   76 1    
    12    6    7 1    
    13    6   77 1    
    14    6   78 1    
    15    7    8 1    
    16    8    9 1    
    17    8   79 1    
    18    8   80 1    
    19    9   10 ar   
    20    9   14 ar   
    21   10   11 ar   
    22   10   81 1    
    23   11   12 ar   
    24   11   71 1    
    25   12   13 ar   
    26   12   82 1    
    27   13   14 ar   
    28   13   15 1    
    29   14   83 1    
    30   15   16 1    
    31   15   84 1    
    32   15   85 1    
    33   16   17 1    
    34   17   18 1    
    35   17   86 1    
    36   17   87 1    
    37   18   19 1    
    38   18   37 1    
    39   18   88 1    
    40   19   20 am   BACKBONE|DICT|INTERRES
    41   19   89 1    
    42   20   21 2    
    43   20   22 1    
    44   22   23 1    
    45   22   24 1    
    46   22   90 1    
    47   23   91 1    
    48   23   92 1    
    49   23   93 1    
    50   24   25 am   BACKBONE|DICT|INTERRES
    51   24   94 1    
    52   25   26 2    
    53   25   27 1    
    54   27   28 1    
    55   27   29 1    
    56   27   95 1    
    57   28   96 1    
    58   28   97 1    
    59   28   98 1    
    60   29   30 am   BACKBONE|DICT|INTERRES
    61   29   99 1    
    62   30   31 2    
    63   30   32 1    
    64   32   33 1    
    65   32   34 1    
    66   32  100 1    
    67   33  101 1    
    68   33  102 1    
    69   33  103 1    
    70   34   35 am   BACKBONE|DICT|INTERRES
    71   34  104 1    
    72   35   36 2    
    73   37   38 2    
    74   37   39 am   BACKBONE|DICT|INTERRES
    75   39   40 1    
    76   39  105 1    
    77   40   41 1    
    78   40   42 1    
    79   40  106 1    
    80   41  107 1    
    81   41  108 1    
    82   41  109 1    
    83   42   43 2    
    84   42   44 am   BACKBONE|DICT|INTERRES
    85   44   45 1    
    86   44  110 1    
    87   45   46 1    
    88   45   47 1    
    89   45  111 1    
    90   46  112 1    
    91   46  113 1    
    92   46  114 1    
    93   47   48 2    
    94   47   49 am   BACKBONE|DICT|INTERRES
    95   49   50 1    
    96   49  115 1    
    97   50   51 1    
    98   50   52 1    
    99   50  116 1    
   100   51  117 1    
   101   51  118 1    
   102   51  119 1    
   103   52   53 2    
   104   52   54 am   BACKBONE|DICT|INTERRES
   105   54   55 1    
   106   54  120 1    
   107   55   56 1    
   108   55   57 1    
   109   55  121 1    
   110   56  122 1    
   111   56  123 1    
   112   56  124 1    
   113   57   58 2    
   114   57   59 am   BACKBONE|DICT|INTERRES
   115   59   60 1    
   116   59  125 1    
   117   60   61 1    
   118   60   62 1    
   119   60  126 1    
   120   61  127 1    
   121   61  128 1    
   122   61  129 1    
   123   62   63 2    
   124   62   64 am   BACKBONE|DICT|INTERRES
   125   64   65 1    
   126   64  130 1    
   127   65   66 1    
   128   65   69 1    
   129   65  131 1    
   130   66   67 am   BACKBONE|DICT|INTERRES
   131   66   68 2    
   132   67  132 1    
   133   67  133 1    
   134   69   70 1    
   135   69  134 1    
   136   69  135 1    
   137   70   71 1    
   138   71  136 1    
   139   71  137 1    
@<TRIPOS>SUBSTRUCTURE
     1 UNK         1 GROUP             0       ****    0 ROOT    
