@<TRIPOS>MOLECULE
3R136
137   139    1
SMALL
USER_CHARGES


@<TRIPOS>ATOM
      1 CA         28.7846   22.9707    7.4498 C.3       0 UNK        -0.1979 
      2 C          28.1243   23.1392    6.0888 C.2       0 UNK         0.4864 
      3 O          26.9264   22.8838    5.9551 O.2       0 UNK        -0.5359 
      4 N          28.8979   23.5569    5.0780 N.am      1 UNK        -0.4318 
      5 CA         28.4188   23.8321    3.7206 C.3       1 UNK         0.0824 
      6 C6         29.5966   23.8946    2.7143 C.3       12 UNK        -0.0944 
      7 S7         29.0954   23.4975    1.0020 S.3       12 UNK        -0.2672 
      8 C8         30.6575   22.8650    0.2987 C.3       12 UNK         0.0333 
      9 C9         31.6522   23.9904    0.0481 C.ar      12 UNK        -0.0807 
     10 C10        32.4766   24.4396    1.0818 C.ar      12 UNK        -0.0894 
     11 C11        33.3390   25.5186    0.8834 C.ar      12 UNK        -0.0804 
     12 C12        33.3834   26.1423   -0.3659 C.ar      12 UNK        -0.0824 
     13 C13        32.5718   25.7040   -1.4187 C.ar      12 UNK        -0.0762 
     14 C14        31.7300   24.6014   -1.2079 C.ar      12 UNK        -0.0782 
     15 C15        32.6439   26.4788   -2.7396 C.3       12 UNK         0.0230 
     16 S16        31.4217   26.0646   -4.0398 S.3       12 UNK        -0.2608 
     17 C17        29.8065   26.3796   -3.2500 C.3       12 UNK        -0.0989 
     18 CA         29.2385   27.8110   -3.4308 C.3       5 UNK         0.0716 
     19 N          27.7849   27.7709   -3.2463 N.am      5 UNK        -0.4135 
     20 C          26.9046   28.7760   -3.1878 C.2       4 UNK         0.5031 
     21 O          27.1960   29.9595   -3.3620 O.2       4 UNK        -0.5229 
     22 CA         25.4402   28.4052   -2.8650 C.3       4 UNK         0.0329 
     23 CB         24.6203   28.2578   -4.1615 C.3       4 UNK        -0.2001 
     24 N          25.2465   27.2359   -1.9838 N.am      4 UNK        -0.4303 
     25 C          25.5618   25.9491   -2.1956 C.2       3 UNK         0.5044 
     26 O          26.1468   25.5510   -3.2043 O.2       3 UNK        -0.5152 
     27 CA         25.2010   24.9502   -1.0802 C.3       3 UNK         0.0319 
     28 CB         25.6822   23.5196   -1.3913 C.3       3 UNK        -0.2001 
     29 N          25.7360   25.3437    0.2259 N.am      3 UNK        -0.4354 
     30 C          25.1604   26.2115    1.0721 C.2       2 UNK         0.4964 
     31 O          24.1783   26.8899    0.7660 O.2       2 UNK        -0.5047 
     32 CA         25.7502   26.3212    2.4912 C.3       2 UNK         0.0288 
     33 CB         24.6609   26.5130    3.5662 C.3       2 UNK        -0.2113 
     34 N          26.5732   25.1523    2.8107 N.am      2 UNK        -0.4145 
     35 C          27.5852   25.1304    3.6838 C.2       1 UNK         0.5006 
     36 O          27.8913   26.0791    4.4122 O.2       1 UNK        -0.5103 
     37 C          29.9226   28.7980   -2.4623 C.2       5 UNK         0.5055 
     38 O          30.6968   29.6551   -2.8913 O.2       5 UNK        -0.5220 
     39 N          29.5959   28.6502   -1.1757 N.am      6 UNK        -0.4450 
     40 CA         30.0477   29.4303   -0.0338 C.3       6 UNK         0.0367 
     41 CB         31.5401   29.1687    0.2532 C.3       6 UNK        -0.1929 
     42 C          29.1827   28.9986    1.1568 C.2       6 UNK         0.5070 
     43 O          28.4079   28.0432    1.0386 O.2       6 UNK        -0.5237 
     44 N          29.3487   29.6951    2.2822 N.am      7 UNK        -0.4739 
     45 CA         28.8068   29.3127    3.5817 C.3       7 UNK         0.0276 
     46 CB         28.0093   30.4919    4.1615 C.3       7 UNK        -0.1927 
     47 C          29.9809   28.9653    4.5011 C.2       7 UNK         0.5013 
     48 O          31.0467   29.5721    4.3701 O.2       7 UNK        -0.5193 
     49 N          29.7556   28.0515    5.4535 N.am      8 UNK        -0.4253 
     50 CA         30.7344   27.5821    6.4449 C.3       8 UNK         0.0242 
     51 CB         30.0432   26.6120    7.4147 C.3       8 UNK        -0.2000 
     52 C          31.4566   28.6953    7.2303 C.2       8 UNK         0.4948 
     53 O          32.6324   28.5373    7.5598 O.2       8 UNK        -0.5275 
     54 N          30.7595   29.8147    7.4725 N.am      9 UNK        -0.4246 
     55 CA         31.3050   31.0296    8.0831 C.3       9 UNK         0.0261 
     56 CB         30.1502   31.9893    8.4132 C.3       9 UNK        -0.1959 
     57 C          32.3647   31.7423    7.2191 C.2       9 UNK         0.5033 
     58 O          33.2346   32.4102    7.7801 O.2       9 UNK        -0.5390 
     59 N          32.2834   31.5960    5.8885 N.am      10 UNK        -0.4215 
     60 CA         33.2794   32.0949    4.9390 C.3       10 UNK         0.0240 
     61 CB         32.6035   32.4363    3.5999 C.3       10 UNK        -0.1982 
     62 C          34.4096   31.0743    4.7351 C.2       10 UNK         0.4970 
     63 O          35.5603   31.4856    4.5809 O.2       10 UNK        -0.4916 
     64 N          34.0728   29.7755    4.7476 N.am      11 UNK        -0.4279 
     65 CA         35.0365   28.6635    4.6967 C.3       11 UNK         0.1003 
     66 C          36.0000   28.6358    5.9156 C.2       11 UNK         0.5709 
     67 N          35.4992   28.8086    7.1330 N.am      11 UNK        -0.7358 
     68 O          37.2047   28.4568    5.7532 O.2       11 UNK        -0.4999 
     69 C69        34.3465   27.2842    4.5426 C.3       12 UNK        -0.0954 
     70 S70        33.2558   27.1652    3.0872 S.3       12 UNK        -0.2268 
     71 C71        34.1968   26.0203    2.0329 C.3       12 UNK         0.0203 
     72 H72        28.6420   21.9533    7.8129 H         1 UNK         0.0888 
     73 H73        28.3380   23.6558    8.1700 H         1 UNK         0.0888 
     74 H74        29.8557   23.1686    7.4117 H         1 UNK         0.0888 
     75 H75        29.8679   23.7745    5.2526 H         1 UNK         0.3017 
     76 H76        27.7706   22.9976    3.4426 H         1 UNK         0.0873 
     77 H77        30.3560   23.1668    3.0041 H         1 UNK         0.0745 
     78 H78        30.0912   24.8688    2.7327 H         1 UNK         0.0745 
     79 H79        31.0895   22.1146    0.9624 H         1 UNK         0.0705 
     80 H80        30.4352   22.3487   -0.6364 H         1 UNK         0.0705 
     81 H81        32.4295   23.9681    2.0534 H         1 UNK         0.1334 
     82 H82        34.0385   26.9907   -0.5118 H         1 UNK         0.1417 
     83 H83        31.1051   24.2274   -2.0057 H         1 UNK         0.1562 
     84 H84        33.6376   26.3284   -3.1636 H         1 UNK         0.0748 
     85 H85        32.5683   27.5459   -2.5283 H         1 UNK         0.0748 
     86 H86        29.8209   26.1029   -2.1962 H         1 UNK         0.0940 
     87 H87        29.1268   25.6613   -3.7130 H         1 UNK         0.0940 
     88 H88        29.4221   28.1482   -4.4527 H         1 UNK         0.0703 
     89 H89        27.3755   26.8416   -3.1746 H         1 UNK         0.3081 
     90 H90        25.0288   29.2522   -2.3136 H         1 UNK         0.0719 
     91 H91        24.9740   27.4297   -4.7765 H         1 UNK         0.0809 
     92 H92        23.5652   28.0890   -3.9463 H         1 UNK         0.0809 
     93 H93        24.6856   29.1619   -4.7686 H         1 UNK         0.0809 
     94 H94        24.8018   27.4367   -1.0927 H         1 UNK         0.2990 
     95 H95        24.1107   24.9235   -1.0216 H         1 UNK         0.0690 
     96 H96        25.3676   22.8177   -0.6188 H         1 UNK         0.0788 
     97 H97        26.7691   23.4665   -1.4698 H         1 UNK         0.0788 
     98 H98        25.2686   23.1629   -2.3357 H         1 UNK         0.0788 
     99 H99        26.6137   24.9192    0.4894 H         1 UNK         0.2993 
    100 H100       26.3859   27.2074    2.4856 H         1 UNK         0.0949 
    101 H101       24.0621   27.4028    3.3677 H         1 UNK         0.0767 
    102 H102       23.9817   25.6606    3.6034 H         1 UNK         0.0767 
    103 H103       25.0970   26.6373    4.5576 H         1 UNK         0.0767 
    104 H104       26.3668   24.3129    2.2875 H         1 UNK         0.3013 
    105 H105       28.9159   27.9467   -0.9077 H         1 UNK         0.3121 
    106 H106       29.8782   30.4895   -0.2362 H         1 UNK         0.0774 
    107 H107       32.1689   29.3972   -0.6068 H         1 UNK         0.0815 
    108 H108       31.7079   28.1273    0.5264 H         1 UNK         0.0815 
    109 H109       31.8993   29.7792    1.0823 H         1 UNK         0.0815 
    110 H110       30.0630   30.4094    2.3124 H         1 UNK         0.2987 
    111 H111       28.1500   28.4474    3.4934 H         1 UNK         0.0949 
    112 H112       28.6346   31.3746    4.3040 H         1 UNK         0.0806 
    113 H113       27.1844   30.7694    3.5051 H         1 UNK         0.0806 
    114 H114       27.5786   30.2348    5.1300 H         1 UNK         0.0806 
    115 H115       28.8798   27.5386    5.4120 H         1 UNK         0.3010 
    116 H116       31.4933   27.0262    5.8933 H         1 UNK         0.0829 
    117 H117       29.5877   25.7799    6.8804 H         1 UNK         0.0813 
    118 H118       30.7572   26.1916    8.1245 H         1 UNK         0.0813 
    119 H119       29.2601   27.1066    7.9908 H         1 UNK         0.0813 
    120 H120       29.7973   29.8485    7.1693 H         1 UNK         0.3038 
    121 H121       31.7889   30.7417    9.0189 H         1 UNK         0.0769 
    122 H122       29.6108   32.2968    7.5164 H         1 UNK         0.0811 
    123 H123       30.5216   32.8944    8.8961 H         1 UNK         0.0811 
    124 H124       29.4350   31.5310    9.0966 H         1 UNK         0.0811 
    125 H125       31.5805   30.9716    5.5014 H         1 UNK         0.3204 
    126 H126       33.7221   33.0129    5.3317 H         1 UNK         0.0748 
    127 H127       31.7921   33.1515    3.7359 H         1 UNK         0.0771 
    128 H128       33.3190   32.8849    2.9097 H         1 UNK         0.0771 
    129 H129       32.1943   31.5528    3.1100 H         1 UNK         0.0771 
    130 H130       33.0946   29.5211    4.8106 H         1 UNK         0.2980 
    131 H131       35.6516   28.8210    3.8086 H         1 UNK         0.0545 
    132 H132       36.1161   28.7956    7.9289 H         1 UNK         0.3459 
    133 H133       34.4940   28.8721    7.2708 H         1 UNK         0.3459 
    134 H134       35.0976   26.4941    4.4892 H         1 UNK         0.0616 
    135 H135       33.7491   27.0606    5.4266 H         1 UNK         0.0616 
    136 H136       34.5402   25.1707    2.6250 H         1 UNK         0.0634 
    137 H137       35.0901   26.5232    1.6593 H         1 UNK         0.0634 
@<TRIPOS>BOND
     1    1    2 1    
     2    1   72 1    
     3    1   73 1    
     4    1   74 1    
     5    2    3 2    
     6    2    4 am   BACKBONE|DICT|INTERRES
     7    4    5 1    
     8    4   75 1    
     9    5    6 1    
    10    5   35 1    
    11    5   76 1    
    12    6    7 1    
    13    6   77 1    
    14    6   78 1    
    15    7    8 1    
    16    8    9 1    
    17    8   79 1    
    18    8   80 1    
    19    9   10 ar   
    20    9   14 ar   
    21   10   11 ar   
    22   10   81 1    
    23   11   12 ar   
    24   11   71 1    
    25   12   13 ar   
    26   12   82 1    
    27   13   14 ar   
    28   13   15 1    
    29   14   83 1    
    30   15   16 1    
    31   15   84 1    
    32   15   85 1    
    33   16   17 1    
    34   17   18 1    
    35   17   86 1    
    36   17   87 1    
    37   18   19 1    
    38   18   37 1    
    39   18   88 1    
    40   19   20 am   BACKBONE|DICT|INTERRES
    41   19   89 1    
    42   20   21 2    
    43   20   22 1    
    44   22   23 1    
    45   22   24 1    
    46   22   90 1    
    47   23   91 1    
    48   23   92 1    
    49   23   93 1    
    50   24   25 am   BACKBONE|DICT|INTERRES
    51   24   94 1    
    52   25   26 2    
    53   25   27 1    
    54   27   28 1    
    55   27   29 1    
    56   27   95 1    
    57   28   96 1    
    58   28   97 1    
    59   28   98 1    
    60   29   30 am   BACKBONE|DICT|INTERRES
    61   29   99 1    
    62   30   31 2    
    63   30   32 1    
    64   32   33 1    
    65   32   34 1    
    66   32  100 1    
    67   33  101 1    
    68   33  102 1    
    69   33  103 1    
    70   34   35 am   BACKBONE|DICT|INTERRES
    71   34  104 1    
    72   35   36 2    
    73   37   38 2    
    74   37   39 am   BACKBONE|DICT|INTERRES
    75   39   40 1    
    76   39  105 1    
    77   40   41 1    
    78   40   42 1    
    79   40  106 1    
    80   41  107 1    
    81   41  108 1    
    82   41  109 1    
    83   42   43 2    
    84   42   44 am   BACKBONE|DICT|INTERRES
    85   44   45 1    
    86   44  110 1    
    87   45   46 1    
    88   45   47 1    
    89   45  111 1    
    90   46  112 1    
    91   46  113 1    
    92   46  114 1    
    93   47   48 2    
    94   47   49 am   BACKBONE|DICT|INTERRES
    95   49   50 1    
    96   49  115 1    
    97   50   51 1    
    98   50   52 1    
    99   50  116 1    
   100   51  117 1    
   101   51  118 1    
   102   51  119 1    
   103   52   53 2    
   104   52   54 am   BACKBONE|DICT|INTERRES
   105   54   55 1    
   106   54  120 1    
   107   55   56 1    
   108   55   57 1    
   109   55  121 1    
   110   56  122 1    
   111   56  123 1    
   112   56  124 1    
   113   57   58 2    
   114   57   59 am   BACKBONE|DICT|INTERRES
   115   59   60 1    
   116   59  125 1    
   117   60   61 1    
   118   60   62 1    
   119   60  126 1    
   120   61  127 1    
   121   61  128 1    
   122   61  129 1    
   123   62   63 2    
   124   62   64 am   BACKBONE|DICT|INTERRES
   125   64   65 1    
   126   64  130 1    
   127   65   66 1    
   128   65   69 1    
   129   65  131 1    
   130   66   67 am   BACKBONE|DICT|INTERRES
   131   66   68 2    
   132   67  132 1    
   133   67  133 1    
   134   69   70 1    
   135   69  134 1    
   136   69  135 1    
   137   70   71 1    
   138   71  136 1    
   139   71  137 1    
@<TRIPOS>SUBSTRUCTURE
     1 UNK         1 GROUP             0       ****    0 ROOT    
