@<TRIPOS>MOLECULE
3R136
137   139    1
SMALL
USER_CHARGES


@<TRIPOS>ATOM
      1 CA         27.1902   20.4796    4.7584 C.3       0 UNK        -0.1979 
      2 C          27.3408   21.7128    3.8794 C.2       0 UNK         0.4864 
      3 O          26.8299   22.7754    4.2351 O.2       0 UNK        -0.5359 
      4 N          28.0350   21.5674    2.7398 N.am      1 UNK        -0.4318 
      5 CA         28.3229   22.6090    1.7394 C.3       1 UNK         0.0824 
      6 C6         29.2783   23.7282    2.2484 C.3       12 UNK        -0.0944 
      7 S7         30.7907   23.0661    3.0318 S.3       12 UNK        -0.2672 
      8 C8         31.9151   22.8524    1.6149 C.3       12 UNK         0.0333 
      9 C9         32.6717   24.1310    1.2870 C.ar      12 UNK        -0.0807 
     10 C10        33.6573   24.5988    2.1608 C.ar      12 UNK        -0.0894 
     11 C11        34.3701   25.7726    1.8804 C.ar      12 UNK        -0.0804 
     12 C12        34.0955   26.4598    0.6934 C.ar      12 UNK        -0.0824 
     13 C13        33.1229   25.9956   -0.1971 C.ar      12 UNK        -0.0762 
     14 C14        32.4141   24.8285    0.1045 C.ar      12 UNK        -0.0782 
     15 C15        32.8532   26.7483   -1.4933 C.3       12 UNK         0.0230 
     16 S16        31.8224   28.2258   -1.2296 S.3       12 UNK        -0.2608 
     17 C17        30.2308   27.4674   -0.7663 C.3       12 UNK        -0.0989 
     18 CA         29.2448   28.4496   -0.0932 C.3       5 UNK         0.0716 
     19 N          27.9058   27.8578   -0.0343 N.am      5 UNK        -0.4135 
     20 C          26.7895   28.4653    0.3903 C.2       4 UNK         0.5031 
     21 O          26.7585   29.6286    0.7914 O.2       4 UNK        -0.5229 
     22 CA         25.5109   27.6088    0.4174 C.3       4 UNK         0.0329 
     23 CB         24.2238   28.4370    0.2165 C.3       4 UNK        -0.2001 
     24 N          25.5747   26.4523   -0.4868 N.am      4 UNK        -0.4303 
     25 C          25.5320   26.4419   -1.8302 C.2       3 UNK         0.5044 
     26 O          25.3965   27.4529   -2.5194 O.2       3 UNK        -0.5152 
     27 CA         25.7030   25.0791   -2.5402 C.3       3 UNK         0.0319 
     28 CB         27.0228   25.0482   -3.3305 C.3       3 UNK        -0.2001 
     29 N          25.6746   23.9252   -1.6351 N.am      3 UNK        -0.4354 
     30 C          24.5987   23.4973   -0.9603 C.2       2 UNK         0.4964 
     31 O          23.4654   23.9447   -1.1377 O.2       2 UNK        -0.5047 
     32 CA         24.8139   22.4206    0.1220 C.3       2 UNK         0.0288 
     33 CB         24.2656   21.0660   -0.3578 C.3       2 UNK        -0.2113 
     34 N          26.1918   22.2285    0.6017 N.am      2 UNK        -0.4145 
     35 C          27.0157   23.1552    1.1201 C.2       1 UNK         0.5006 
     36 O          26.7706   24.3644    1.1345 O.2       1 UNK        -0.5103 
     37 C          29.7342   28.9078    1.2980 C.2       5 UNK         0.5055 
     38 O          30.3011   29.9939    1.4201 O.2       5 UNK        -0.5220 
     39 N          29.4341   28.1108    2.3342 N.am      6 UNK        -0.4450 
     40 CA         29.7603   28.3724    3.7399 C.3       6 UNK         0.0367 
     41 CB         29.4509   27.1094    4.5610 C.3       6 UNK        -0.1929 
     42 C          29.0766   29.6150    4.3523 C.2       6 UNK         0.5070 
     43 O          29.4331   30.0020    5.4645 O.2       6 UNK        -0.5237 
     44 N          28.1245   30.2365    3.6403 N.am      7 UNK        -0.4739 
     45 CA         27.5627   31.5391    4.0067 C.3       7 UNK         0.0276 
     46 CB         26.1948   31.7144    3.3276 C.3       7 UNK        -0.1927 
     47 C          28.4964   32.7117    3.6449 C.2       7 UNK         0.5013 
     48 O          28.3293   33.7936    4.2100 O.2       7 UNK        -0.5193 
     49 N          29.4365   32.4947    2.7126 N.am      8 UNK        -0.4253 
     50 CA         30.3764   33.5022    2.2153 C.3       8 UNK         0.0242 
     51 CB         30.1506   33.6981    0.7065 C.3       8 UNK        -0.2000 
     52 C          31.8376   33.1164    2.4906 C.2       8 UNK         0.4948 
     53 O          32.6297   33.9907    2.8466 O.2       8 UNK        -0.5275 
     54 N          32.1808   31.8351    2.3035 N.am      9 UNK        -0.4246 
     55 CA         33.5214   31.2865    2.5106 C.3       9 UNK         0.0261 
     56 CB         33.6074   29.9191    1.8112 C.3       9 UNK        -0.1959 
     57 C          33.8731   31.1465    4.0003 C.2       9 UNK         0.5033 
     58 O          32.9811   31.1067    4.8509 O.2       9 UNK        -0.5390 
     59 N          35.1767   31.0013    4.2802 N.am      10 UNK        -0.4215 
     60 CA         35.7536   30.8210    5.6208 C.3       10 UNK         0.0240 
     61 CB         37.2867   30.7865    5.5067 C.3       10 UNK        -0.1982 
     62 C          35.2462   29.5822    6.3867 C.2       10 UNK         0.4970 
     63 O          35.3282   29.5623    7.6154 O.2       10 UNK        -0.4916 
     64 N          34.7193   28.5907    5.6578 N.am      11 UNK        -0.4279 
     65 CA         33.9983   27.4312    6.2024 C.3       11 UNK         0.1003 
     66 C          32.6159   27.7756    6.8322 C.2       11 UNK         0.5709 
     67 N          32.0565   28.9589    6.6111 N.am      11 UNK        -0.7358 
     68 O          32.0415   26.9481    7.5354 O.2       11 UNK        -0.4999 
     69 C69        33.8417   26.3131    5.1402 C.3       12 UNK        -0.0954 
     70 S70        35.4423   25.6904    4.5232 S.3       12 UNK        -0.2268 
     71 C71        35.4569   26.3231    2.8086 C.3       12 UNK         0.0203 
     72 H72        27.6886   19.6094    4.3315 H         1 UNK         0.0888 
     73 H73        27.6200   20.6668    5.7421 H         1 UNK         0.0888 
     74 H74        26.1357   20.2372    4.8872 H         1 UNK         0.0888 
     75 H75        28.4289   20.6602    2.5320 H         1 UNK         0.3017 
     76 H76        28.8401   22.1011    0.9240 H         1 UNK         0.0873 
     77 H77        28.7716   24.3507    2.9880 H         1 UNK         0.0745 
     78 H78        29.5627   24.3960    1.4333 H         1 UNK         0.0745 
     79 H79        32.6361   22.0712    1.8598 H         1 UNK         0.0705 
     80 H80        31.3575   22.4888    0.7506 H         1 UNK         0.0705 
     81 H81        33.8557   24.0376    3.0625 H         1 UNK         0.1334 
     82 H82        34.6437   27.3611    0.4551 H         1 UNK         0.1417 
     83 H83        31.6644   24.4618   -0.5834 H         1 UNK         0.1562 
     84 H84        32.3731   26.0985   -2.2268 H         1 UNK         0.0748 
     85 H85        33.8011   27.0565   -1.9368 H         1 UNK         0.0748 
     86 H86        30.4003   26.6102   -0.1151 H         1 UNK         0.0940 
     87 H87        29.7926   27.0683   -1.6829 H         1 UNK         0.0940 
     88 H88        29.1669   29.3416   -0.7188 H         1 UNK         0.0703 
     89 H89        27.8235   26.8970   -0.3301 H         1 UNK         0.3081 
     90 H90        25.4660   27.1866    1.4224 H         1 UNK         0.0719 
     91 H91        24.2327   28.9827   -0.7272 H         1 UNK         0.0809 
     92 H92        23.3371   27.8033    0.2317 H         1 UNK         0.0809 
     93 H93        24.1081   29.1745    1.0117 H         1 UNK         0.0809 
     94 H94        25.7525   25.5671   -0.0190 H         1 UNK         0.2990 
     95 H95        24.8763   24.9778   -3.2464 H         1 UNK         0.0690 
     96 H96        27.0702   25.8692   -4.0476 H         1 UNK         0.0788 
     97 H97        27.1241   24.1226   -3.8977 H         1 UNK         0.0788 
     98 H98        27.8901   25.1381   -2.6753 H         1 UNK         0.0788 
     99 H99        26.5613   23.4882   -1.4321 H         1 UNK         0.2993 
    100 H100       24.2254   22.7367    0.9860 H         1 UNK         0.0949 
    101 H101       24.8429   20.6723   -1.1955 H         1 UNK         0.0767 
    102 H102       24.2815   20.3242    0.4410 H         1 UNK         0.0767 
    103 H103       23.2299   21.1557   -0.6896 H         1 UNK         0.0767 
    104 H104       26.5020   21.2682    0.6398 H         1 UNK         0.3013 
    105 H105       28.9323   27.2559    2.1459 H         1 UNK         0.3121 
    106 H106       30.8356   28.5557    3.7966 H         1 UNK         0.0774 
    107 H107       28.3964   26.8371    4.5030 H         1 UNK         0.0815 
    108 H108       29.6907   27.2570    5.6149 H         1 UNK         0.0815 
    109 H109       30.0405   26.2588    4.2176 H         1 UNK         0.0815 
    110 H110       27.8593   29.8678    2.7347 H         1 UNK         0.2987 
    111 H111       27.4072   31.5642    5.0877 H         1 UNK         0.0949 
    112 H112       26.2875   31.7819    2.2432 H         1 UNK         0.0806 
    113 H113       25.5248   30.8858    3.5573 H         1 UNK         0.0806 
    114 H114       25.7078   32.6296    3.6671 H         1 UNK         0.0806 
    115 H115       29.5263   31.5622    2.3212 H         1 UNK         0.3010 
    116 H116       30.2014   34.4612    2.7075 H         1 UNK         0.0829 
    117 H117       29.1399   34.0515    0.5016 H         1 UNK         0.0813 
    118 H118       30.8415   34.4382    0.3001 H         1 UNK         0.0813 
    119 H119       30.2994   32.7708    0.1513 H         1 UNK         0.0813 
    120 H120       31.4710   31.1702    2.0002 H         1 UNK         0.3038 
    121 H121       34.2415   31.9641    2.0467 H         1 UNK         0.0769 
    122 H122       32.9374   29.1869    2.2647 H         1 UNK         0.0811 
    123 H123       34.6184   29.5148    1.8563 H         1 UNK         0.0811 
    124 H124       33.3437   29.9992    0.7566 H         1 UNK         0.0811 
    125 H125       35.8365   31.0384    3.5159 H         1 UNK         0.3204 
    126 H126       35.4738   31.6951    6.2124 H         1 UNK         0.0748 
    127 H127       37.6276   29.9470    4.8991 H         1 UNK         0.0771 
    128 H128       37.6741   31.7039    5.0628 H         1 UNK         0.0771 
    129 H129       37.7501   30.6859    6.4895 H         1 UNK         0.0771 
    130 H130       34.6980   28.6937    4.6566 H         1 UNK         0.2980 
    131 H131       34.6042   27.0295    7.0168 H         1 UNK         0.0545 
    132 H132       31.1429   29.1561    6.9884 H         1 UNK         0.3459 
    133 H133       32.5004   29.6556    6.0201 H         1 UNK         0.3459 
    134 H134       33.3100   25.4574    5.5607 H         1 UNK         0.0616 
    135 H135       33.2306   26.6646    4.3067 H         1 UNK         0.0616 
    136 H136       36.4285   26.0908    2.3711 H         1 UNK         0.0634 
    137 H137       35.3897   27.4105    2.8481 H         1 UNK         0.0634 
@<TRIPOS>BOND
     1    1    2 1    
     2    1   72 1    
     3    1   73 1    
     4    1   74 1    
     5    2    3 2    
     6    2    4 am   BACKBONE|DICT|INTERRES
     7    4    5 1    
     8    4   75 1    
     9    5    6 1    
    10    5   35 1    
    11    5   76 1    
    12    6    7 1    
    13    6   77 1    
    14    6   78 1    
    15    7    8 1    
    16    8    9 1    
    17    8   79 1    
    18    8   80 1    
    19    9   10 ar   
    20    9   14 ar   
    21   10   11 ar   
    22   10   81 1    
    23   11   12 ar   
    24   11   71 1    
    25   12   13 ar   
    26   12   82 1    
    27   13   14 ar   
    28   13   15 1    
    29   14   83 1    
    30   15   16 1    
    31   15   84 1    
    32   15   85 1    
    33   16   17 1    
    34   17   18 1    
    35   17   86 1    
    36   17   87 1    
    37   18   19 1    
    38   18   37 1    
    39   18   88 1    
    40   19   20 am   BACKBONE|DICT|INTERRES
    41   19   89 1    
    42   20   21 2    
    43   20   22 1    
    44   22   23 1    
    45   22   24 1    
    46   22   90 1    
    47   23   91 1    
    48   23   92 1    
    49   23   93 1    
    50   24   25 am   BACKBONE|DICT|INTERRES
    51   24   94 1    
    52   25   26 2    
    53   25   27 1    
    54   27   28 1    
    55   27   29 1    
    56   27   95 1    
    57   28   96 1    
    58   28   97 1    
    59   28   98 1    
    60   29   30 am   BACKBONE|DICT|INTERRES
    61   29   99 1    
    62   30   31 2    
    63   30   32 1    
    64   32   33 1    
    65   32   34 1    
    66   32  100 1    
    67   33  101 1    
    68   33  102 1    
    69   33  103 1    
    70   34   35 am   BACKBONE|DICT|INTERRES
    71   34  104 1    
    72   35   36 2    
    73   37   38 2    
    74   37   39 am   BACKBONE|DICT|INTERRES
    75   39   40 1    
    76   39  105 1    
    77   40   41 1    
    78   40   42 1    
    79   40  106 1    
    80   41  107 1    
    81   41  108 1    
    82   41  109 1    
    83   42   43 2    
    84   42   44 am   BACKBONE|DICT|INTERRES
    85   44   45 1    
    86   44  110 1    
    87   45   46 1    
    88   45   47 1    
    89   45  111 1    
    90   46  112 1    
    91   46  113 1    
    92   46  114 1    
    93   47   48 2    
    94   47   49 am   BACKBONE|DICT|INTERRES
    95   49   50 1    
    96   49  115 1    
    97   50   51 1    
    98   50   52 1    
    99   50  116 1    
   100   51  117 1    
   101   51  118 1    
   102   51  119 1    
   103   52   53 2    
   104   52   54 am   BACKBONE|DICT|INTERRES
   105   54   55 1    
   106   54  120 1    
   107   55   56 1    
   108   55   57 1    
   109   55  121 1    
   110   56  122 1    
   111   56  123 1    
   112   56  124 1    
   113   57   58 2    
   114   57   59 am   BACKBONE|DICT|INTERRES
   115   59   60 1    
   116   59  125 1    
   117   60   61 1    
   118   60   62 1    
   119   60  126 1    
   120   61  127 1    
   121   61  128 1    
   122   61  129 1    
   123   62   63 2    
   124   62   64 am   BACKBONE|DICT|INTERRES
   125   64   65 1    
   126   64  130 1    
   127   65   66 1    
   128   65   69 1    
   129   65  131 1    
   130   66   67 am   BACKBONE|DICT|INTERRES
   131   66   68 2    
   132   67  132 1    
   133   67  133 1    
   134   69   70 1    
   135   69  134 1    
   136   69  135 1    
   137   70   71 1    
   138   71  136 1    
   139   71  137 1    
@<TRIPOS>SUBSTRUCTURE
     1 UNK         1 GROUP             0       ****    0 ROOT    
