@<TRIPOS>MOLECULE
3R136
137   139    1
SMALL
USER_CHARGES


@<TRIPOS>ATOM
      1 CA         28.4569   21.8465   -3.9807 C.3       0 UNK        -0.1979 
      2 C          28.9690   20.9785   -2.8330 C.2       0 UNK         0.4864 
      3 O          28.9072   19.7545   -2.9350 O.2       0 UNK        -0.5359 
      4 N          29.4871   21.5438   -1.7314 N.am      1 UNK        -0.4318 
      5 CA         29.5997   22.9769   -1.4228 C.3       1 UNK         0.0824 
      6 C6         30.4517   23.2239   -0.1551 C.3       12 UNK        -0.0944 
      7 S7         32.1949   22.7462   -0.3942 S.3       12 UNK        -0.2672 
      8 C8         32.4501   21.5519    0.9556 C.3       12 UNK         0.0333 
      9 C9         32.3180   22.2051    2.3245 C.ar      12 UNK        -0.0807 
     10 C10        33.3293   23.0404    2.8060 C.ar      12 UNK        -0.0894 
     11 C11        33.2196   23.6375    4.0653 C.ar      12 UNK        -0.0804 
     12 C12        32.0875   23.3890    4.8491 C.ar      12 UNK        -0.0824 
     13 C13        31.0679   22.5536    4.3772 C.ar      12 UNK        -0.0762 
     14 C14        31.1916   21.9642    3.1159 C.ar      12 UNK        -0.0782 
     15 C15        29.8462   22.2468    5.2351 C.3       12 UNK         0.0230 
     16 S16        28.9075   23.7320    5.7123 S.3       12 UNK        -0.2608 
     17 C17        28.4303   24.4584    4.1035 C.3       12 UNK        -0.0989 
     18 CA         29.2081   25.7584    3.7707 C.3       5 UNK         0.0716 
     19 N          29.0130   26.1571    2.3748 N.am      5 UNK        -0.4135 
     20 C          29.7523   27.0897    1.7530 C.2       4 UNK         0.5031 
     21 O          30.7825   27.5640    2.2312 O.2       4 UNK        -0.5229 
     22 CA         29.2431   27.6372    0.4031 C.3       4 UNK         0.0329 
     23 CB         30.1735   27.2566   -0.7599 C.3       4 UNK        -0.2001 
     24 N          27.8577   27.2714    0.0825 N.am      4 UNK        -0.4303 
     25 C          26.7872   27.7141    0.7618 C.2       3 UNK         0.5044 
     26 O          26.8687   28.4787    1.7226 O.2       3 UNK        -0.5152 
     27 CA         25.4019   27.1735    0.3652 C.3       3 UNK         0.0319 
     28 CB         24.7267   28.1230   -0.6360 C.3       3 UNK        -0.2001 
     29 N          25.4154   25.8150   -0.1845 N.am      3 UNK        -0.4354 
     30 C          25.9094   24.7287    0.4267 C.2       2 UNK         0.4964 
     31 O          26.4213   24.7479    1.5476 O.2       2 UNK        -0.5047 
     32 CA         25.8973   23.4060   -0.3651 C.3       2 UNK         0.0288 
     33 CB         25.0600   23.4485   -1.6649 C.3       2 UNK        -0.2113 
     34 N          27.2625   22.9525   -0.6569 N.am      2 UNK        -0.4145 
     35 C          28.2280   23.6602   -1.2668 C.2       1 UNK         0.5006 
     36 O          28.0739   24.8004   -1.7080 O.2       1 UNK        -0.5103 
     37 C          28.8517   26.9096    4.7466 C.2       5 UNK         0.5055 
     38 O          29.4838   27.0259    5.7969 O.2       5 UNK        -0.5220 
     39 N          27.8444   27.7251    4.3974 N.am      6 UNK        -0.4450 
     40 CA         27.2911   28.7747    5.2549 C.3       6 UNK         0.0367 
     41 CB         25.7569   28.6732    5.2314 C.3       6 UNK        -0.1929 
     42 C          27.7286   30.1861    4.8361 C.2       6 UNK         0.5070 
     43 O          27.8728   31.0429    5.7090 O.2       6 UNK        -0.5237 
     44 N          27.8915   30.4244    3.5261 N.am      7 UNK        -0.4739 
     45 CA         28.2154   31.7295    2.9422 C.3       7 UNK         0.0276 
     46 CB         28.1945   31.6228    1.4089 C.3       7 UNK        -0.1927 
     47 C          29.5741   32.2652    3.4181 C.2       7 UNK         0.5013 
     48 O          30.5816   31.5689    3.2768 O.2       7 UNK        -0.5193 
     49 N          29.5851   33.5027    3.9334 N.am      8 UNK        -0.4253 
     50 CA         30.7556   34.1759    4.5143 C.3       8 UNK         0.0242 
     51 CB         30.3099   35.5074    5.1409 C.3       8 UNK        -0.2000 
     52 C          31.9253   34.4065    3.5388 C.2       8 UNK         0.4948 
     53 O          33.0586   34.5757    3.9891 O.2       8 UNK        -0.5275 
     54 N          31.6414   34.3888    2.2291 N.am      9 UNK        -0.4246 
     55 CA         32.6377   34.4044    1.1552 C.3       9 UNK         0.0261 
     56 CB         31.9363   34.7561   -0.1677 C.3       9 UNK        -0.1959 
     57 C          33.4119   33.0767    1.0171 C.2       9 UNK         0.5033 
     58 O          34.4562   33.0651    0.3630 O.2       9 UNK        -0.5390 
     59 N          32.8923   31.9939    1.6094 N.am      10 UNK        -0.4215 
     60 CA         33.4758   30.6584    1.6227 C.3       10 UNK         0.0240 
     61 CB         32.6035   29.7279    0.7612 C.3       10 UNK        -0.1982 
     62 C          33.6480   30.2221    3.0879 C.2       10 UNK         0.4970 
     63 O          34.3767   30.8992    3.8159 O.2       10 UNK        -0.4916 
     64 N          33.0210   29.1132    3.5020 N.am      11 UNK        -0.4279 
     65 CA         33.1625   28.5433    4.8538 C.3       11 UNK         0.1003 
     66 C          32.2623   29.2027    5.9393 C.2       11 UNK         0.5709 
     67 N          31.3752   30.1332    5.6136 N.am      11 UNK        -0.7358 
     68 O          32.3966   28.8833    7.1186 O.2       11 UNK        -0.4999 
     69 C69        33.0087   27.0003    4.8428 C.3       12 UNK        -0.0954 
     70 S70        34.2882   26.1855    3.8313 S.3       12 UNK        -0.2268 
     71 C71        34.3432   24.5266    4.5778 C.3       12 UNK         0.0203 
     72 H72        28.3903   21.2598   -4.8967 H         1 UNK         0.0888 
     73 H73        27.4607   22.2276   -3.7578 H         1 UNK         0.0888 
     74 H74        29.1187   22.6873   -4.1834 H         1 UNK         0.0888 
     75 H75        29.8504   20.9286   -1.0183 H         1 UNK         0.3017 
     76 H76        30.1046   23.4639   -2.2593 H         1 UNK         0.0873 
     77 H77        30.4491   24.2751    0.1336 H         1 UNK         0.0745 
     78 H78        30.0243   22.6880    0.6927 H         1 UNK         0.0745 
     79 H79        33.4464   21.1182    0.8581 H         1 UNK         0.0705 
     80 H80        31.7463   20.7254    0.8460 H         1 UNK         0.0705 
     81 H81        34.2026   23.2297    2.1964 H         1 UNK         0.1334 
     82 H82        31.9978   23.8431    5.8267 H         1 UNK         0.1417 
     83 H83        30.4122   21.3090    2.7513 H         1 UNK         0.1562 
     84 H84        30.1741   21.7353    6.1411 H         1 UNK         0.0748 
     85 H85        29.1710   21.5582    4.7247 H         1 UNK         0.0748 
     86 H86        27.3546   24.6443    4.1141 H         1 UNK         0.0940 
     87 H87        28.5925   23.7160    3.3203 H         1 UNK         0.0940 
     88 H88        30.2686   25.5354    3.8888 H         1 UNK         0.0703 
     89 H89        28.1789   25.8011    1.9208 H         1 UNK         0.3081 
     90 H90        29.2751   28.7238    0.4925 H         1 UNK         0.0719 
     91 H91        30.1480   26.1924   -0.9784 H         1 UNK         0.0809 
     92 H92        29.8994   27.7876   -1.6715 H         1 UNK         0.0809 
     93 H93        31.2093   27.5137   -0.5375 H         1 UNK         0.0809 
     94 H94        27.7240   26.5983   -0.6657 H         1 UNK         0.2990 
     95 H95        24.7958   27.1480    1.2732 H         1 UNK         0.0690 
     96 H96        25.2683   28.1641   -1.5820 H         1 UNK         0.0788 
     97 H97        24.6826   29.1393   -0.2412 H         1 UNK         0.0788 
     98 H98        23.7023   27.8157   -0.8471 H         1 UNK         0.0788 
     99 H99        25.0516   25.7030   -1.1199 H         1 UNK         0.2993 
    100 H100       25.4498   22.6623    0.2963 H         1 UNK         0.0949 
    101 H101       25.4675   24.1425   -2.4011 H         1 UNK         0.0767 
    102 H102       25.0232   22.4646   -2.1332 H         1 UNK         0.0767 
    103 H103       24.0284   23.7402   -1.4624 H         1 UNK         0.0767 
    104 H104       27.4978   22.0304   -0.3171 H         1 UNK         0.3013 
    105 H105       27.4246   27.6324    3.4793 H         1 UNK         0.3121 
    106 H106       27.6169   28.6268    6.2869 H         1 UNK         0.0774 
    107 H107       25.3052   29.4342    5.8694 H         1 UNK         0.0815 
    108 H108       25.3575   28.8111    4.2256 H         1 UNK         0.0815 
    109 H109       25.4188   27.7033    5.5964 H         1 UNK         0.0815 
    110 H110       27.6936   29.6744    2.8690 H         1 UNK         0.2987 
    111 H111       27.4307   32.4246    3.2481 H         1 UNK         0.0949 
    112 H112       28.9800   30.9623    1.0418 H         1 UNK         0.0806 
    113 H113       27.2390   31.2419    1.0477 H         1 UNK         0.0806 
    114 H114       28.3497   32.5984    0.9467 H         1 UNK         0.0806 
    115 H115       28.7093   34.0015    4.0010 H         1 UNK         0.3010 
    116 H116       31.1338   33.5325    5.3119 H         1 UNK         0.0829 
    117 H117       31.1511   36.0197    5.6105 H         1 UNK         0.0813 
    118 H118       29.8916   36.1848    4.3953 H         1 UNK         0.0813 
    119 H119       29.5580   35.3512    5.9147 H         1 UNK         0.0813 
    120 H120       30.6777   34.2678    1.9545 H         1 UNK         0.3038 
    121 H121       33.3676   35.1863    1.3755 H         1 UNK         0.0769 
    122 H122       32.6546   34.8127   -0.9869 H         1 UNK         0.0811 
    123 H123       31.4389   35.7244   -0.1091 H         1 UNK         0.0811 
    124 H124       31.1901   34.0088   -0.4407 H         1 UNK         0.0811 
    125 H125       32.0543   32.0923    2.1777 H         1 UNK         0.3204 
    126 H126       34.4790   30.6736    1.1921 H         1 UNK         0.0748 
    127 H127       32.9607   28.6978    0.7951 H         1 UNK         0.0771 
    128 H128       31.5636   29.7429    1.0874 H         1 UNK         0.0771 
    129 H129       32.6204   30.0373   -0.2838 H         1 UNK         0.0771 
    130 H130       32.3807   28.6244    2.8832 H         1 UNK         0.2980 
    131 H131       34.1819   28.7445    5.1888 H         1 UNK         0.0545 
    132 H132       31.2516   30.4379    4.6532 H         1 UNK         0.3459 
    133 H133       30.8059   30.5364    6.3390 H         1 UNK         0.3459 
    134 H134       33.0689   26.6021    5.8570 H         1 UNK         0.0616 
    135 H135       32.0299   26.7198    4.4617 H         1 UNK         0.0616 
    136 H136       34.3176   24.6033    5.6658 H         1 UNK         0.0634 
    137 H137       35.3022   24.0685    4.3315 H         1 UNK         0.0634 
@<TRIPOS>BOND
     1    1    2 1    
     2    1   72 1    
     3    1   73 1    
     4    1   74 1    
     5    2    3 2    
     6    2    4 am   BACKBONE|DICT|INTERRES
     7    4    5 1    
     8    4   75 1    
     9    5    6 1    
    10    5   35 1    
    11    5   76 1    
    12    6    7 1    
    13    6   77 1    
    14    6   78 1    
    15    7    8 1    
    16    8    9 1    
    17    8   79 1    
    18    8   80 1    
    19    9   10 ar   
    20    9   14 ar   
    21   10   11 ar   
    22   10   81 1    
    23   11   12 ar   
    24   11   71 1    
    25   12   13 ar   
    26   12   82 1    
    27   13   14 ar   
    28   13   15 1    
    29   14   83 1    
    30   15   16 1    
    31   15   84 1    
    32   15   85 1    
    33   16   17 1    
    34   17   18 1    
    35   17   86 1    
    36   17   87 1    
    37   18   19 1    
    38   18   37 1    
    39   18   88 1    
    40   19   20 am   BACKBONE|DICT|INTERRES
    41   19   89 1    
    42   20   21 2    
    43   20   22 1    
    44   22   23 1    
    45   22   24 1    
    46   22   90 1    
    47   23   91 1    
    48   23   92 1    
    49   23   93 1    
    50   24   25 am   BACKBONE|DICT|INTERRES
    51   24   94 1    
    52   25   26 2    
    53   25   27 1    
    54   27   28 1    
    55   27   29 1    
    56   27   95 1    
    57   28   96 1    
    58   28   97 1    
    59   28   98 1    
    60   29   30 am   BACKBONE|DICT|INTERRES
    61   29   99 1    
    62   30   31 2    
    63   30   32 1    
    64   32   33 1    
    65   32   34 1    
    66   32  100 1    
    67   33  101 1    
    68   33  102 1    
    69   33  103 1    
    70   34   35 am   BACKBONE|DICT|INTERRES
    71   34  104 1    
    72   35   36 2    
    73   37   38 2    
    74   37   39 am   BACKBONE|DICT|INTERRES
    75   39   40 1    
    76   39  105 1    
    77   40   41 1    
    78   40   42 1    
    79   40  106 1    
    80   41  107 1    
    81   41  108 1    
    82   41  109 1    
    83   42   43 2    
    84   42   44 am   BACKBONE|DICT|INTERRES
    85   44   45 1    
    86   44  110 1    
    87   45   46 1    
    88   45   47 1    
    89   45  111 1    
    90   46  112 1    
    91   46  113 1    
    92   46  114 1    
    93   47   48 2    
    94   47   49 am   BACKBONE|DICT|INTERRES
    95   49   50 1    
    96   49  115 1    
    97   50   51 1    
    98   50   52 1    
    99   50  116 1    
   100   51  117 1    
   101   51  118 1    
   102   51  119 1    
   103   52   53 2    
   104   52   54 am   BACKBONE|DICT|INTERRES
   105   54   55 1    
   106   54  120 1    
   107   55   56 1    
   108   55   57 1    
   109   55  121 1    
   110   56  122 1    
   111   56  123 1    
   112   56  124 1    
   113   57   58 2    
   114   57   59 am   BACKBONE|DICT|INTERRES
   115   59   60 1    
   116   59  125 1    
   117   60   61 1    
   118   60   62 1    
   119   60  126 1    
   120   61  127 1    
   121   61  128 1    
   122   61  129 1    
   123   62   63 2    
   124   62   64 am   BACKBONE|DICT|INTERRES
   125   64   65 1    
   126   64  130 1    
   127   65   66 1    
   128   65   69 1    
   129   65  131 1    
   130   66   67 am   BACKBONE|DICT|INTERRES
   131   66   68 2    
   132   67  132 1    
   133   67  133 1    
   134   69   70 1    
   135   69  134 1    
   136   69  135 1    
   137   70   71 1    
   138   71  136 1    
   139   71  137 1    
@<TRIPOS>SUBSTRUCTURE
     1 UNK         1 GROUP             0       ****    0 ROOT    
