@<TRIPOS>MOLECULE
3R136
137   139    1
SMALL
USER_CHARGES


@<TRIPOS>ATOM
      1 CA         25.9942   20.6478    3.3858 C.3       0 UNK        -0.1979 
      2 C          26.2419   21.7033    2.3190 C.2       0 UNK         0.4864 
      3 O          25.2895   22.3009    1.8144 O.2       0 UNK        -0.5359 
      4 N          27.5154   21.9535    1.9804 N.am      1 UNK        -0.4318 
      5 CA         27.9414   22.9196    0.9582 C.3       1 UNK         0.0824 
      6 C6         29.4301   22.7579    0.5594 C.3       12 UNK        -0.0944 
      7 S7         30.5961   22.8118    1.9619 S.3       12 UNK        -0.2672 
      8 C8         32.1775   22.5320    1.1019 C.3       12 UNK         0.0333 
      9 C9         32.8753   23.8454    0.7819 C.ar      12 UNK        -0.0807 
     10 C10        33.7730   24.3915    1.7030 C.ar      12 UNK        -0.0894 
     11 C11        34.4002   25.6152    1.4495 C.ar      12 UNK        -0.0804 
     12 C12        34.1495   26.2748    0.2413 C.ar      12 UNK        -0.0824 
     13 C13        33.2639   25.7318   -0.6967 C.ar      12 UNK        -0.0762 
     14 C14        32.6293   24.5151   -0.4212 C.ar      12 UNK        -0.0782 
     15 C15        33.0191   26.4513   -2.0169 C.3       12 UNK         0.0230 
     16 S16        31.9328   27.9023   -1.8280 S.3       12 UNK        -0.2608 
     17 C17        30.2750   27.1361   -1.7551 C.3       12 UNK        -0.0989 
     18 CA         29.2790   27.9339   -0.8663 C.3       5 UNK         0.0716 
     19 N          27.9100   27.4637   -1.0388 N.am      5 UNK        -0.4135 
     20 C          27.0398   27.9229   -1.9448 C.2       4 UNK         0.5031 
     21 O          27.2783   28.8688   -2.6972 O.2       4 UNK        -0.5229 
     22 CA         25.6838   27.2074   -2.0702 C.3       4 UNK         0.0329 
     23 CB         25.7603   26.1084   -3.1438 C.3       4 UNK        -0.2001 
     24 N          25.2136   26.6148   -0.8131 N.am      4 UNK        -0.4303 
     25 C          23.9746   26.7632   -0.3173 C.2       3 UNK         0.5044 
     26 O          23.1011   27.4459   -0.8545 O.2       3 UNK        -0.5152 
     27 CA         23.6233   26.0184    0.9886 C.3       3 UNK         0.0319 
     28 CB         22.8322   24.7378    0.6766 C.3       3 UNK        -0.2001 
     29 N          24.7890   25.6666    1.8000 N.am      3 UNK        -0.4354 
     30 C          25.5787   26.5538    2.4221 C.2       2 UNK         0.4964 
     31 O          25.3236   27.7558    2.4941 O.2       2 UNK        -0.5047 
     32 CA         26.8944   26.0334    3.0319 C.3       2 UNK         0.0288 
     33 CB         26.8227   26.0269    4.5676 C.3       2 UNK        -0.2113 
     34 N          27.3228   24.7090    2.5612 N.am      2 UNK        -0.4145 
     35 C          27.5928   24.3855    1.2869 C.2       1 UNK         0.5006 
     36 O          27.5198   25.1934    0.3619 O.2       1 UNK        -0.5103 
     37 C          29.6083   27.9616    0.6383 C.2       5 UNK         0.5055 
     38 O          29.0745   28.8113    1.3537 O.2       5 UNK        -0.5220 
     39 N          30.5453   27.1085    1.0790 N.am      6 UNK        -0.4450 
     40 CA         31.2547   27.1678    2.3636 C.3       6 UNK         0.0367 
     41 CB         30.3427   26.7947    3.5448 C.3       6 UNK        -0.1929 
     42 C          31.9995   28.5048    2.5625 C.2       6 UNK         0.5070 
     43 O          32.0520   29.0217    3.6800 O.2       6 UNK        -0.5237 
     44 N          32.5283   29.0597    1.4594 N.am      7 UNK        -0.4739 
     45 CA         33.1406   30.3906    1.3453 C.3       7 UNK         0.0276 
     46 CB         34.4620   30.4554    2.1410 C.3       7 UNK        -0.1927 
     47 C          32.1554   31.5238    1.7063 C.2       7 UNK         0.5013 
     48 O          32.5533   32.5091    2.3269 O.2       7 UNK        -0.5193 
     49 N          30.8830   31.3374    1.3187 N.am      8 UNK        -0.4253 
     50 CA         29.7023   32.1231    1.6973 C.3       8 UNK         0.0242 
     51 CB         29.8075   33.5863    1.2141 C.3       8 UNK        -0.2000 
     52 C          29.4016   31.9874    3.2025 C.2       8 UNK         0.4948 
     53 O          29.2289   32.9949    3.8911 O.2       8 UNK        -0.5275 
     54 N          29.3542   30.7289    3.6702 N.am      9 UNK        -0.4246 
     55 CA         29.1449   30.2947    5.0588 C.3       9 UNK         0.0261 
     56 CB         27.6800   30.5350    5.4803 C.3       9 UNK        -0.1959 
     57 C          30.1694   30.8978    6.0421 C.2       9 UNK         0.5033 
     58 O          29.7783   31.4773    7.0585 O.2       9 UNK        -0.5390 
     59 N          31.4601   30.7592    5.7116 N.am      10 UNK        -0.4215 
     60 CA         32.5794   31.3383    6.4569 C.3       10 UNK         0.0240 
     61 CB         33.1662   32.5177    5.6651 C.3       10 UNK        -0.1982 
     62 C          33.6835   30.3270    6.8000 C.2       10 UNK         0.4970 
     63 O          34.3305   30.5165    7.8314 O.2       10 UNK        -0.4916 
     64 N          33.9107   29.2943    5.9703 N.am      11 UNK        -0.4279 
     65 CA         34.9749   28.2976    6.2169 C.3       11 UNK         0.1003 
     66 C          34.6374   27.2254    7.2965 C.2       11 UNK         0.5709 
     67 N          33.4041   27.1352    7.7810 N.am      11 UNK        -0.7358 
     68 O          35.5168   26.4759    7.7152 O.2       11 UNK        -0.4999 
     69 C69        35.5489   27.6866    4.9085 C.3       12 UNK        -0.0954 
     70 S70        34.4181   26.5458    4.0540 S.3       12 UNK        -0.2268 
     71 C71        35.3144   26.2378    2.4977 C.3       12 UNK         0.0203 
     72 H72        26.9236   20.2107    3.7505 H         1 UNK         0.0888 
     73 H73        25.3775   19.8454    2.9819 H         1 UNK         0.0888 
     74 H74        25.4696   21.0873    4.2337 H         1 UNK         0.0888 
     75 H75        28.2645   21.4498    2.4355 H         1 UNK         0.3017 
     76 H76        27.3565   22.6883    0.0650 H         1 UNK         0.0873 
     77 H77        29.5580   21.7975    0.0574 H         1 UNK         0.0745 
     78 H78        29.7186   23.5127   -0.1747 H         1 UNK         0.0745 
     79 H79        32.8167   21.9212    1.7413 H         1 UNK         0.0705 
     80 H80        32.0208   21.9500    0.1924 H         1 UNK         0.0705 
     81 H81        33.9585   23.8813    2.6386 H         1 UNK         0.1334 
     82 H82        34.6352   27.2186    0.0325 H         1 UNK         0.1417 
     83 H83        31.9488   24.0849   -1.1433 H         1 UNK         0.1562 
     84 H84        32.5983   25.7734   -2.7614 H         1 UNK         0.0748 
     85 H85        33.9757   26.7847   -2.4222 H         1 UNK         0.0748 
     86 H86        30.3371   26.0926   -1.4427 H         1 UNK         0.0940 
     87 H87        29.9004   27.1061   -2.7798 H         1 UNK         0.0940 
     88 H88        29.3225   28.9785   -1.1827 H         1 UNK         0.0703 
     89 H89        27.6626   26.6601   -0.4618 H         1 UNK         0.3081 
     90 H90        24.9747   27.9637   -2.4133 H         1 UNK         0.0719 
     91 H91        26.4473   25.3114   -2.8560 H         1 UNK         0.0809 
     92 H92        24.7825   25.6602   -3.3207 H         1 UNK         0.0809 
     93 H93        26.1074   26.5128   -4.0958 H         1 UNK         0.0809 
     94 H94        25.8731   26.0350   -0.3056 H         1 UNK         0.2990 
     95 H95        22.9862   26.6789    1.5806 H         1 UNK         0.0690 
     96 H96        22.5076   24.2393    1.5902 H         1 UNK         0.0788 
     97 H97        23.4271   24.0268    0.1015 H         1 UNK         0.0788 
     98 H98        21.9370   24.9619    0.0947 H         1 UNK         0.0788 
     99 H99        25.0537   24.6894    1.8117 H         1 UNK         0.2993 
    100 H100       27.6559   26.7478    2.7212 H         1 UNK         0.0949 
    101 H101       26.0780   25.3182    4.9321 H         1 UNK         0.0767 
    102 H102       27.7834   25.7641    5.0105 H         1 UNK         0.0767 
    103 H103       26.5519   27.0121    4.9506 H         1 UNK         0.0767 
    104 H104       27.3955   23.9811    3.2569 H         1 UNK         0.3013 
    105 H105       30.9357   26.4570    0.4125 H         1 UNK         0.3121 
    106 H106       32.0196   26.3994    2.3185 H         1 UNK         0.0774 
    107 H107       29.9070   25.8061    3.4039 H         1 UNK         0.0815 
    108 H108       30.9052   26.7653    4.4788 H         1 UNK         0.0815 
    109 H109       29.5356   27.5112    3.6720 H         1 UNK         0.0815 
    110 H110       32.4392   28.5481    0.5912 H         1 UNK         0.2987 
    111 H111       33.3853   30.5300    0.2910 H         1 UNK         0.0949 
    112 H112       35.1415   29.6568    1.8448 H         1 UNK         0.0806 
    113 H113       34.9779   31.4001    1.9664 H         1 UNK         0.0806 
    114 H114       34.2961   30.3715    3.2144 H         1 UNK         0.0806 
    115 H115       30.6743   30.4724    0.8412 H         1 UNK         0.3010 
    116 H116       28.8560   31.6708    1.1775 H         1 UNK         0.0829 
    117 H117       30.0197   33.6378    0.1463 H         1 UNK         0.0813 
    118 H118       28.8706   34.1178    1.3849 H         1 UNK         0.0813 
    119 H119       30.5884   34.1366    1.7393 H         1 UNK         0.0813 
    120 H120       29.4726   29.9819    2.9927 H         1 UNK         0.3038 
    121 H121       29.3147   29.2196    5.0833 H         1 UNK         0.0769 
    122 H122       27.4346   31.5972    5.5018 H         1 UNK         0.0811 
    123 H123       27.4893   30.1360    6.4773 H         1 UNK         0.0811 
    124 H124       26.9867   30.0434    4.7975 H         1 UNK         0.0811 
    125 H125       31.6861   30.2210    4.8732 H         1 UNK         0.3204 
    126 H126       32.2209   31.7295    7.4113 H         1 UNK         0.0748 
    127 H127       33.9415   33.0273    6.2387 H         1 UNK         0.0771 
    128 H128       33.6174   32.1882    4.7296 H         1 UNK         0.0771 
    129 H129       32.4001   33.2552    5.4241 H         1 UNK         0.0771 
    130 H130       33.3381   29.1523    5.1442 H         1 UNK         0.2980 
    131 H131       35.8142   28.8470    6.6481 H         1 UNK         0.0545 
    132 H132       32.6789   27.7457    7.4426 H         1 UNK         0.3459 
    133 H133       33.1988   26.4434    8.4841 H         1 UNK         0.3459 
    134 H134       35.8227   28.4878    4.2208 H         1 UNK         0.0616 
    135 H135       36.4738   27.1475    5.1209 H         1 UNK         0.0616 
    136 H136       35.7304   27.1772    2.1312 H         1 UNK         0.0634 
    137 H137       36.1575   25.5733    2.6908 H         1 UNK         0.0634 
@<TRIPOS>BOND
     1    1    2 1    
     2    1   72 1    
     3    1   73 1    
     4    1   74 1    
     5    2    3 2    
     6    2    4 am   BACKBONE|DICT|INTERRES
     7    4    5 1    
     8    4   75 1    
     9    5    6 1    
    10    5   35 1    
    11    5   76 1    
    12    6    7 1    
    13    6   77 1    
    14    6   78 1    
    15    7    8 1    
    16    8    9 1    
    17    8   79 1    
    18    8   80 1    
    19    9   10 ar   
    20    9   14 ar   
    21   10   11 ar   
    22   10   81 1    
    23   11   12 ar   
    24   11   71 1    
    25   12   13 ar   
    26   12   82 1    
    27   13   14 ar   
    28   13   15 1    
    29   14   83 1    
    30   15   16 1    
    31   15   84 1    
    32   15   85 1    
    33   16   17 1    
    34   17   18 1    
    35   17   86 1    
    36   17   87 1    
    37   18   19 1    
    38   18   37 1    
    39   18   88 1    
    40   19   20 am   BACKBONE|DICT|INTERRES
    41   19   89 1    
    42   20   21 2    
    43   20   22 1    
    44   22   23 1    
    45   22   24 1    
    46   22   90 1    
    47   23   91 1    
    48   23   92 1    
    49   23   93 1    
    50   24   25 am   BACKBONE|DICT|INTERRES
    51   24   94 1    
    52   25   26 2    
    53   25   27 1    
    54   27   28 1    
    55   27   29 1    
    56   27   95 1    
    57   28   96 1    
    58   28   97 1    
    59   28   98 1    
    60   29   30 am   BACKBONE|DICT|INTERRES
    61   29   99 1    
    62   30   31 2    
    63   30   32 1    
    64   32   33 1    
    65   32   34 1    
    66   32  100 1    
    67   33  101 1    
    68   33  102 1    
    69   33  103 1    
    70   34   35 am   BACKBONE|DICT|INTERRES
    71   34  104 1    
    72   35   36 2    
    73   37   38 2    
    74   37   39 am   BACKBONE|DICT|INTERRES
    75   39   40 1    
    76   39  105 1    
    77   40   41 1    
    78   40   42 1    
    79   40  106 1    
    80   41  107 1    
    81   41  108 1    
    82   41  109 1    
    83   42   43 2    
    84   42   44 am   BACKBONE|DICT|INTERRES
    85   44   45 1    
    86   44  110 1    
    87   45   46 1    
    88   45   47 1    
    89   45  111 1    
    90   46  112 1    
    91   46  113 1    
    92   46  114 1    
    93   47   48 2    
    94   47   49 am   BACKBONE|DICT|INTERRES
    95   49   50 1    
    96   49  115 1    
    97   50   51 1    
    98   50   52 1    
    99   50  116 1    
   100   51  117 1    
   101   51  118 1    
   102   51  119 1    
   103   52   53 2    
   104   52   54 am   BACKBONE|DICT|INTERRES
   105   54   55 1    
   106   54  120 1    
   107   55   56 1    
   108   55   57 1    
   109   55  121 1    
   110   56  122 1    
   111   56  123 1    
   112   56  124 1    
   113   57   58 2    
   114   57   59 am   BACKBONE|DICT|INTERRES
   115   59   60 1    
   116   59  125 1    
   117   60   61 1    
   118   60   62 1    
   119   60  126 1    
   120   61  127 1    
   121   61  128 1    
   122   61  129 1    
   123   62   63 2    
   124   62   64 am   BACKBONE|DICT|INTERRES
   125   64   65 1    
   126   64  130 1    
   127   65   66 1    
   128   65   69 1    
   129   65  131 1    
   130   66   67 am   BACKBONE|DICT|INTERRES
   131   66   68 2    
   132   67  132 1    
   133   67  133 1    
   134   69   70 1    
   135   69  134 1    
   136   69  135 1    
   137   70   71 1    
   138   71  136 1    
   139   71  137 1    
@<TRIPOS>SUBSTRUCTURE
     1 UNK         1 GROUP             0       ****    0 ROOT    
