@<TRIPOS>MOLECULE
3R136
137   139    1
SMALL
USER_CHARGES


@<TRIPOS>ATOM
      1 CA         32.7702   24.7297   -1.7236 C.3       0 UNK        -0.1979 
      2 C          31.3602   25.0289   -1.2372 C.2       0 UNK         0.4864 
      3 O          30.8117   26.0810   -1.5661 O.2       0 UNK        -0.5359 
      4 N          30.7741   24.1144   -0.4520 N.am      1 UNK        -0.4318 
      5 CA         29.4305   24.2465    0.1272 C.3       1 UNK         0.0824 
      6 C6         29.1768   23.2463    1.2831 C.3       12 UNK        -0.0944 
      7 S7         30.5075   23.2460    2.5321 S.3       12 UNK        -0.2672 
      8 C8         29.5840   23.0266    4.0833 C.3       12 UNK         0.0333 
      9 C9         29.2259   24.3586    4.7249 C.ar      12 UNK        -0.0807 
     10 C10        30.2147   25.0928    5.3877 C.ar      12 UNK        -0.0894 
     11 C11        29.8980   26.2888    6.0368 C.ar      12 UNK        -0.0804 
     12 C12        28.5799   26.7501    6.0163 C.ar      12 UNK        -0.0824 
     13 C13        27.5820   26.0316    5.3489 C.ar      12 UNK        -0.0762 
     14 C14        27.9104   24.8342    4.7032 C.ar      12 UNK        -0.0782 
     15 C15        26.1475   26.5413    5.3704 C.3       12 UNK         0.0230 
     16 S16        25.9966   28.1297    4.4949 S.3       12 UNK        -0.2608 
     17 C17        25.1913   27.6531    2.9311 C.3       12 UNK        -0.0989 
     18 CA         26.0828   26.8465    1.9469 C.3       5 UNK         0.0716 
     19 N          25.3581   26.2262    0.8317 N.am      5 UNK        -0.4135 
     20 C          24.3624   26.7310    0.0855 C.2       4 UNK         0.5031 
     21 O          23.7908   27.7982    0.3112 O.2       4 UNK        -0.5229 
     22 CA         23.9032   25.9067   -1.1308 C.3       4 UNK         0.0329 
     23 CB         24.3250   26.6056   -2.4350 C.3       4 UNK        -0.2001 
     24 N          24.4582   24.5518   -1.1361 N.am      4 UNK        -0.4303 
     25 C          23.7584   23.4092   -1.0996 C.2       3 UNK         0.5044 
     26 O          22.5317   23.3656   -0.9912 O.2       3 UNK        -0.5152 
     27 CA         24.5614   22.0883   -1.1911 C.3       3 UNK         0.0319 
     28 CB         23.7937   20.9802   -1.9432 C.3       3 UNK        -0.2001 
     29 N          25.9185   22.2545   -1.7361 N.am      3 UNK        -0.4354 
     30 C          26.2579   22.7253   -2.9477 C.2       2 UNK         0.4964 
     31 O          25.4459   22.9216   -3.8528 O.2       2 UNK        -0.5047 
     32 CA         27.7439   23.0854   -3.1771 C.3       2 UNK         0.0288 
     33 CB         27.8916   24.3192   -4.0932 C.3       2 UNK        -0.2113 
     34 N          28.5532   23.2860   -1.9616 N.am      2 UNK        -0.4145 
     35 C          28.3217   24.1250   -0.9360 C.2       1 UNK         0.5006 
     36 O          27.2807   24.7678   -0.7912 O.2       1 UNK        -0.5103 
     37 C          27.2950   27.6326    1.4088 C.2       5 UNK         0.5055 
     38 O          27.1734   28.3683    0.4259 O.2       5 UNK        -0.5220 
     39 N          28.4530   27.4340    2.0522 N.am      6 UNK        -0.4450 
     40 CA         29.7185   28.0809    1.7061 C.3       6 UNK         0.0367 
     41 CB         30.8767   27.2716    2.3146 C.3       6 UNK        -0.1929 
     42 C          29.7654   29.5396    2.1912 C.2       6 UNK         0.5070 
     43 O          29.0381   29.9165    3.1132 O.2       6 UNK        -0.5237 
     44 N          30.6450   30.3325    1.5679 N.am      7 UNK        -0.4739 
     45 CA         30.9395   31.7091    1.9680 C.3       7 UNK         0.0276 
     46 CB         31.7157   32.4015    0.8357 C.3       7 UNK        -0.1927 
     47 C          31.7592   31.7455    3.2670 C.2       7 UNK         0.5013 
     48 O          32.5870   30.8591    3.4897 O.2       7 UNK        -0.5193 
     49 N          31.5821   32.8094    4.0618 N.am      8 UNK        -0.4253 
     50 CA         32.2716   33.0287    5.3414 C.3       8 UNK         0.0242 
     51 CB         31.7464   34.3217    5.9859 C.3       8 UNK        -0.2000 
     52 C          33.8102   33.0613    5.2478 C.2       8 UNK         0.4948 
     53 O          34.4775   32.7289    6.2264 O.2       8 UNK        -0.5275 
     54 N          34.3410   33.4366    4.0754 N.am      9 UNK        -0.4246 
     55 CA         35.7683   33.3932    3.7524 C.3       9 UNK         0.0261 
     56 CB         36.0346   34.2978    2.5378 C.3       9 UNK        -0.1959 
     57 C          36.2942   31.9690    3.4843 C.2       9 UNK         0.5033 
     58 O          37.4949   31.7433    3.6429 O.2       9 UNK        -0.5390 
     59 N          35.4141   31.0453    3.0702 N.am      10 UNK        -0.4215 
     60 CA         35.7413   29.6387    2.8257 C.3       10 UNK         0.0240 
     61 CB         34.8686   29.0939    1.6820 C.3       10 UNK        -0.1982 
     62 C          35.5673   28.7948    4.0976 C.2       10 UNK         0.4970 
     63 O          36.3564   27.8745    4.3162 O.2       10 UNK        -0.4916 
     64 N          34.5537   29.1226    4.9108 N.am      11 UNK        -0.4279 
     65 CA         34.3025   28.5296    6.2331 C.3       11 UNK         0.1003 
     66 C          35.4683   28.7504    7.2388 C.2       11 UNK         0.5709 
     67 N          35.6549   27.8316    8.1774 N.am      11 UNK        -0.7358 
     68 O          36.1781   29.7537    7.2035 O.2       11 UNK        -0.4999 
     69 C69        32.9648   29.0335    6.8336 C.3       12 UNK        -0.0954 
     70 S70        31.5270   28.5184    5.8408 S.3       12 UNK        -0.2268 
     71 C71        30.9712   27.0668    6.7837 C.3       12 UNK         0.0203 
     72 H72        33.1354   23.7721   -1.3526 H         1 UNK         0.0888 
     73 H73        33.4553   25.5071   -1.3864 H         1 UNK         0.0888 
     74 H74        32.7934   24.7031   -2.8127 H         1 UNK         0.0888 
     75 H75        31.2870   23.2872   -0.1801 H         1 UNK         0.3017 
     76 H76        29.3512   25.2541    0.5360 H         1 UNK         0.0873 
     77 H77        28.2286   23.4793    1.7716 H         1 UNK         0.0745 
     78 H78        29.0841   22.2268    0.9035 H         1 UNK         0.0745 
     79 H79        28.6951   22.4181    3.9097 H         1 UNK         0.0705 
     80 H80        30.2049   22.4565    4.7761 H         1 UNK         0.0705 
     81 H81        31.2312   24.7235    5.4059 H         1 UNK         0.1334 
     82 H82        28.3296   27.6738    6.5207 H         1 UNK         0.1417 
     83 H83        27.1406   24.2594    4.2063 H         1 UNK         0.1562 
     84 H84        25.8410   26.6846    6.4075 H         1 UNK         0.0748 
     85 H85        25.4583   25.8077    4.9494 H         1 UNK         0.0748 
     86 H86        24.8476   28.5763    2.4622 H         1 UNK         0.0940 
     87 H87        24.2901   27.0867    3.1709 H         1 UNK         0.0940 
     88 H88        26.4764   25.9926    2.4976 H         1 UNK         0.0703 
     89 H89        25.8088   25.3978    0.4634 H         1 UNK         0.3081 
     90 H90        22.8124   25.8695   -1.0976 H         1 UNK         0.0719 
     91 H91        25.4099   26.6952   -2.5092 H         1 UNK         0.0809 
     92 H92        23.9743   26.0568   -3.3093 H         1 UNK         0.0809 
     93 H93        23.9083   27.6120   -2.4943 H         1 UNK         0.0809 
     94 H94        25.4702   24.4910   -1.2143 H         1 UNK         0.2990 
     95 H95        24.6929   21.7524   -0.1615 H         1 UNK         0.0690 
     96 H96        24.3734   20.0584   -1.9918 H         1 UNK         0.0788 
     97 H97        23.5478   21.2767   -2.9632 H         1 UNK         0.0788 
     98 H98        22.8550   20.7438   -1.4406 H         1 UNK         0.0788 
     99 H99        26.6681   22.1147   -1.0738 H         1 UNK         0.2993 
    100 H100       28.1782   22.2303   -3.6975 H         1 UNK         0.0949 
    101 H101       27.4267   24.1512   -5.0656 H         1 UNK         0.0767 
    102 H102       27.4239   25.2020   -3.6552 H         1 UNK         0.0767 
    103 H103       28.9404   24.5541   -4.2763 H         1 UNK         0.0767 
    104 H104       29.4297   22.7830   -1.9466 H         1 UNK         0.3013 
    105 H105       28.4501   26.8980    2.9089 H         1 UNK         0.3121 
    106 H106       29.8265   28.0753    0.6188 H         1 UNK         0.0774 
    107 H107       30.9371   26.2699    1.8926 H         1 UNK         0.0815 
    108 H108       30.7675   27.1695    3.3928 H         1 UNK         0.0815 
    109 H109       31.8374   27.7529    2.1319 H         1 UNK         0.0815 
    110 H110       31.2308   29.9381    0.8466 H         1 UNK         0.2987 
    111 H111       29.9953   32.2350    2.1273 H         1 UNK         0.0949 
    112 H112       32.6735   31.9150    0.6445 H         1 UNK         0.0806 
    113 H113       31.1470   32.3982   -0.0945 H         1 UNK         0.0806 
    114 H114       31.9227   33.4441    1.0807 H         1 UNK         0.0806 
    115 H115       30.9000   33.5053    3.7953 H         1 UNK         0.3010 
    116 H116       32.0092   32.1927    5.9930 H         1 UNK         0.0829 
    117 H117       30.6716   34.2709    6.1616 H         1 UNK         0.0813 
    118 H118       32.2213   34.4969    6.9525 H         1 UNK         0.0813 
    119 H119       31.9458   35.1942    5.3624 H         1 UNK         0.0813 
    120 H120       33.7135   33.7194    3.3370 H         1 UNK         0.3038 
    121 H121       36.3250   33.7927    4.6030 H         1 UNK         0.0769 
    122 H122       35.4973   33.9557    1.6522 H         1 UNK         0.0811 
    123 H123       37.0966   34.3125    2.2884 H         1 UNK         0.0811 
    124 H124       35.7367   35.3276    2.7362 H         1 UNK         0.0811 
    125 H125       34.4270   31.2804    3.0413 H         1 UNK         0.3204 
    126 H126       36.7848   29.5581    2.5134 H         1 UNK         0.0748 
    127 H127       35.0241   29.6587    0.7627 H         1 UNK         0.0771 
    128 H128       35.1127   28.0524    1.4684 H         1 UNK         0.0771 
    129 H129       33.8070   29.1356    1.9239 H         1 UNK         0.0771 
    130 H130       33.9061   29.8453    4.6172 H         1 UNK         0.2980 
    131 H131       34.2177   27.4524    6.0766 H         1 UNK         0.0545 
    132 H132       36.3964   27.9619    8.8476 H         1 UNK         0.3459 
    133 H133       35.0755   27.0082    8.2264 H         1 UNK         0.3459 
    134 H134       32.8306   28.6703    7.8544 H         1 UNK         0.0616 
    135 H135       32.9661   30.1225    6.9001 H         1 UNK         0.0616 
    136 H136       30.5855   27.3916    7.7512 H         1 UNK         0.0634 
    137 H137       31.8281   26.4239    6.9910 H         1 UNK         0.0634 
@<TRIPOS>BOND
     1    1    2 1    
     2    1   72 1    
     3    1   73 1    
     4    1   74 1    
     5    2    3 2    
     6    2    4 am   BACKBONE|DICT|INTERRES
     7    4    5 1    
     8    4   75 1    
     9    5    6 1    
    10    5   35 1    
    11    5   76 1    
    12    6    7 1    
    13    6   77 1    
    14    6   78 1    
    15    7    8 1    
    16    8    9 1    
    17    8   79 1    
    18    8   80 1    
    19    9   10 ar   
    20    9   14 ar   
    21   10   11 ar   
    22   10   81 1    
    23   11   12 ar   
    24   11   71 1    
    25   12   13 ar   
    26   12   82 1    
    27   13   14 ar   
    28   13   15 1    
    29   14   83 1    
    30   15   16 1    
    31   15   84 1    
    32   15   85 1    
    33   16   17 1    
    34   17   18 1    
    35   17   86 1    
    36   17   87 1    
    37   18   19 1    
    38   18   37 1    
    39   18   88 1    
    40   19   20 am   BACKBONE|DICT|INTERRES
    41   19   89 1    
    42   20   21 2    
    43   20   22 1    
    44   22   23 1    
    45   22   24 1    
    46   22   90 1    
    47   23   91 1    
    48   23   92 1    
    49   23   93 1    
    50   24   25 am   BACKBONE|DICT|INTERRES
    51   24   94 1    
    52   25   26 2    
    53   25   27 1    
    54   27   28 1    
    55   27   29 1    
    56   27   95 1    
    57   28   96 1    
    58   28   97 1    
    59   28   98 1    
    60   29   30 am   BACKBONE|DICT|INTERRES
    61   29   99 1    
    62   30   31 2    
    63   30   32 1    
    64   32   33 1    
    65   32   34 1    
    66   32  100 1    
    67   33  101 1    
    68   33  102 1    
    69   33  103 1    
    70   34   35 am   BACKBONE|DICT|INTERRES
    71   34  104 1    
    72   35   36 2    
    73   37   38 2    
    74   37   39 am   BACKBONE|DICT|INTERRES
    75   39   40 1    
    76   39  105 1    
    77   40   41 1    
    78   40   42 1    
    79   40  106 1    
    80   41  107 1    
    81   41  108 1    
    82   41  109 1    
    83   42   43 2    
    84   42   44 am   BACKBONE|DICT|INTERRES
    85   44   45 1    
    86   44  110 1    
    87   45   46 1    
    88   45   47 1    
    89   45  111 1    
    90   46  112 1    
    91   46  113 1    
    92   46  114 1    
    93   47   48 2    
    94   47   49 am   BACKBONE|DICT|INTERRES
    95   49   50 1    
    96   49  115 1    
    97   50   51 1    
    98   50   52 1    
    99   50  116 1    
   100   51  117 1    
   101   51  118 1    
   102   51  119 1    
   103   52   53 2    
   104   52   54 am   BACKBONE|DICT|INTERRES
   105   54   55 1    
   106   54  120 1    
   107   55   56 1    
   108   55   57 1    
   109   55  121 1    
   110   56  122 1    
   111   56  123 1    
   112   56  124 1    
   113   57   58 2    
   114   57   59 am   BACKBONE|DICT|INTERRES
   115   59   60 1    
   116   59  125 1    
   117   60   61 1    
   118   60   62 1    
   119   60  126 1    
   120   61  127 1    
   121   61  128 1    
   122   61  129 1    
   123   62   63 2    
   124   62   64 am   BACKBONE|DICT|INTERRES
   125   64   65 1    
   126   64  130 1    
   127   65   66 1    
   128   65   69 1    
   129   65  131 1    
   130   66   67 am   BACKBONE|DICT|INTERRES
   131   66   68 2    
   132   67  132 1    
   133   67  133 1    
   134   69   70 1    
   135   69  134 1    
   136   69  135 1    
   137   70   71 1    
   138   71  136 1    
   139   71  137 1    
@<TRIPOS>SUBSTRUCTURE
     1 UNK         1 GROUP             0       ****    0 ROOT    
