@<TRIPOS>MOLECULE
3R136
137   139    1
SMALL
USER_CHARGES


@<TRIPOS>ATOM
      1 CA         34.1752   27.5473   -0.3909 C.3       0 UNK        -0.1979 
      2 C          32.7249   27.8796   -0.0777 C.2       0 UNK         0.4864 
      3 O          32.4671   28.7066    0.7971 O.2       0 UNK        -0.5359 
      4 N          31.7817   27.2571   -0.7915 N.am      1 UNK        -0.4318 
      5 CA         30.3401   27.4712   -0.6558 C.3       1 UNK         0.0824 
      6 C6         29.6316   26.2605   -0.0012 C.3       12 UNK        -0.0944 
      7 S7         29.9616   26.1708    1.7803 S.3       12 UNK        -0.2672 
      8 C8         30.9033   24.6262    1.9367 C.3       12 UNK         0.0333 
      9 C9         30.7772   24.1335    3.3654 C.ar      12 UNK        -0.0807 
     10 C10        31.7327   24.4716    4.3251 C.ar      12 UNK        -0.0894 
     11 C11        31.5460   24.1102    5.6621 C.ar      12 UNK        -0.0804 
     12 C12        30.3831   23.4256    6.0362 C.ar      12 UNK        -0.0824 
     13 C13        29.4179   23.0786    5.0822 C.ar      12 UNK        -0.0762 
     14 C14        29.6489   23.4029    3.7412 C.ar      12 UNK        -0.0782 
     15 C15        28.1440   22.3576    5.5307 C.3       12 UNK         0.0230 
     16 S16        26.6935   22.5484    4.4245 S.3       12 UNK        -0.2608 
     17 C17        26.3336   24.3401    4.5220 C.3       12 UNK        -0.0989 
     18 CA         26.5007   25.0779    3.1586 C.3       5 UNK         0.0716 
     19 N          25.7359   24.4864    2.0521 N.am      5 UNK        -0.4135 
     20 C          24.4029   24.3951    1.9590 C.2       4 UNK         0.5031 
     21 O          23.6282   24.7775    2.8383 O.2       4 UNK        -0.5229 
     22 CA         23.8454   23.7928    0.6473 C.3       4 UNK         0.0329 
     23 CB         22.3581   24.1469    0.4333 C.3       4 UNK        -0.2001 
     24 N          24.6068   24.1196   -0.5736 N.am      4 UNK        -0.4303 
     25 C          24.9707   25.3413   -0.9906 C.2       3 UNK         0.5044 
     26 O          24.8557   26.3608   -0.3085 O.2       3 UNK        -0.5152 
     27 CA         25.5438   25.4565   -2.4091 C.3       3 UNK         0.0319 
     28 CB         24.3954   25.4325   -3.4396 C.3       3 UNK        -0.2001 
     29 N          26.2902   26.7124   -2.4781 N.am      3 UNK        -0.4354 
     30 C          26.9937   27.2008   -3.5069 C.2       2 UNK         0.4964 
     31 O          27.1092   26.6443   -4.5990 O.2       2 UNK        -0.5047 
     32 CA         27.7322   28.5247   -3.2443 C.3       2 UNK         0.0288 
     33 CB         26.7493   29.6936   -3.0593 C.3       2 UNK        -0.2113 
     34 N          28.5904   28.4091   -2.0647 N.am      2 UNK        -0.4145 
     35 C          29.7403   27.7228   -2.0438 C.2       1 UNK         0.5006 
     36 O          30.2881   27.2530   -3.0456 O.2       1 UNK        -0.5103 
     37 C          26.3312   26.6139    3.2803 C.2       5 UNK         0.5055 
     38 O          26.6430   27.1690    4.3364 O.2       5 UNK        -0.5220 
     39 N          25.8887   27.2969    2.2100 N.am      6 UNK        -0.4450 
     40 CA         25.9201   28.7567    2.0951 C.3       6 UNK         0.0367 
     41 CB         24.9028   29.2313    1.0426 C.3       6 UNK        -0.1929 
     42 C          27.3520   29.1894    1.7457 C.2       6 UNK         0.5070 
     43 O          27.7356   29.1608    0.5727 O.2       6 UNK        -0.5237 
     44 N          28.1236   29.5030    2.7918 N.am      7 UNK        -0.4739 
     45 CA         29.5486   29.8218    2.7493 C.3       7 UNK         0.0276 
     46 CB         30.0568   29.9880    4.1903 C.3       7 UNK        -0.1927 
     47 C          29.8703   31.0714    1.9159 C.2       7 UNK         0.5013 
     48 O          29.2573   32.1211    2.1243 O.2       7 UNK        -0.5193 
     49 N          30.8613   30.9349    1.0307 N.am      8 UNK        -0.4253 
     50 CA         31.5087   32.0240    0.3017 C.3       8 UNK         0.0242 
     51 CB         31.6660   31.6210   -1.1741 C.3       8 UNK        -0.2000 
     52 C          32.8775   32.3427    0.9285 C.2       8 UNK         0.4948 
     53 O          33.2884   33.5035    0.9136 O.2       8 UNK        -0.5275 
     54 N          33.5409   31.3226    1.4894 N.am      9 UNK        -0.4246 
     55 CA         34.7508   31.4194    2.3006 C.3       9 UNK         0.0261 
     56 CB         35.9008   30.7056    1.5710 C.3       9 UNK        -0.1959 
     57 C          34.4716   30.7498    3.6532 C.2       9 UNK         0.5033 
     58 O          33.6246   29.8568    3.7278 O.2       9 UNK        -0.5390 
     59 N          35.1825   31.1865    4.6996 N.am      10 UNK        -0.4215 
     60 CA         35.0400   30.6712    6.0644 C.3       10 UNK         0.0240 
     61 CB         35.8155   31.5812    7.0314 C.3       10 UNK        -0.1982 
     62 C          35.5196   29.2148    6.1978 C.2       10 UNK         0.4970 
     63 O          36.5166   28.8402    5.5750 O.2       10 UNK        -0.4916 
     64 N          34.8185   28.4413    7.0347 N.am      11 UNK        -0.4279 
     65 CA         35.1664   27.0604    7.4008 C.3       11 UNK         0.1003 
     66 C          36.4934   26.9774    8.2050 C.2       11 UNK         0.5709 
     67 N          37.2691   25.9185    8.0159 N.am      11 UNK        -0.7358 
     68 O          36.8028   27.8395    9.0262 O.2       11 UNK        -0.4999 
     69 C69        34.0139   26.3754    8.1821 C.3       12 UNK        -0.0954 
     70 S70        32.4927   26.2149    7.1882 S.3       12 UNK        -0.2268 
     71 C71        32.6048   24.4681    6.6935 C.3       12 UNK         0.0203 
     72 H72        34.6933   28.4363   -0.7492 H         1 UNK         0.0888 
     73 H73        34.6797   27.1974    0.5093 H         1 UNK         0.0888 
     74 H74        34.2610   26.7719   -1.1518 H         1 UNK         0.0888 
     75 H75        32.0426   26.6473   -1.5551 H         1 UNK         0.3017 
     76 H76        30.1487   28.3658   -0.0627 H         1 UNK         0.0873 
     77 H77        29.9152   25.3284   -0.4931 H         1 UNK         0.0745 
     78 H78        28.5468   26.3381   -0.1025 H         1 UNK         0.0745 
     79 H79        31.9461   24.8013    1.6676 H         1 UNK         0.0705 
     80 H80        30.5174   23.8719    1.2494 H         1 UNK         0.0705 
     81 H81        32.6077   25.0394    4.0384 H         1 UNK         0.1334 
     82 H82        30.2277   23.1658    7.0747 H         1 UNK         0.1417 
     83 H83        28.9281   23.1325    2.9835 H         1 UNK         0.1562 
     84 H84        27.8586   22.6970    6.5278 H         1 UNK         0.0748 
     85 H85        28.3679   21.2940    5.6208 H         1 UNK         0.0748 
     86 H86        26.9890   24.7819    5.2751 H         1 UNK         0.0940 
     87 H87        25.3188   24.4665    4.9022 H         1 UNK         0.0940 
     88 H88        27.5406   24.9605    2.8632 H         1 UNK         0.0703 
     89 H89        26.2832   24.1430    1.2767 H         1 UNK         0.3081 
     90 H90        23.9115   22.7105    0.7682 H         1 UNK         0.0719 
     91 H91        21.9639   23.6797   -0.4691 H         1 UNK         0.0809 
     92 H92        21.7450   23.8018    1.2668 H         1 UNK         0.0809 
     93 H93        22.2122   25.2242    0.3441 H         1 UNK         0.0809 
     94 H94        24.7784   23.3401   -1.1945 H         1 UNK         0.2990 
     95 H95        26.2300   24.6267   -2.5878 H         1 UNK         0.0690 
     96 H96        23.7888   24.5321   -3.3343 H         1 UNK         0.0788 
     97 H97        24.7676   25.4421   -4.4635 H         1 UNK         0.0788 
     98 H98        23.7305   26.2887   -3.3175 H         1 UNK         0.0788 
     99 H99        26.2343   27.2476   -1.6196 H         1 UNK         0.2993 
    100 H100       28.3568   28.7404   -4.1144 H         1 UNK         0.0949 
    101 H101       26.1224   29.5668   -2.1761 H         1 UNK         0.0767 
    102 H102       27.2802   30.6401   -2.9552 H         1 UNK         0.0767 
    103 H103       26.0870   29.7864   -3.9212 H         1 UNK         0.0767 
    104 H104       28.2158   28.7531   -1.1806 H         1 UNK         0.3013 
    105 H105       25.6150   26.7947    1.3690 H         1 UNK         0.3121 
    106 H106       25.6329   29.1994    3.0515 H         1 UNK         0.0774 
    107 H107       25.1600   28.8950    0.0388 H         1 UNK         0.0815 
    108 H108       24.8591   30.3205    1.0137 H         1 UNK         0.0815 
    109 H109       23.8997   28.8696    1.2685 H         1 UNK         0.0815 
    110 H110       27.7107   29.4454    3.7122 H         1 UNK         0.2987 
    111 H111       30.0657   28.9690    2.3088 H         1 UNK         0.0949 
    112 H112       29.5200   30.7761    4.7197 H         1 UNK         0.0806 
    113 H113       29.9490   29.0632    4.7578 H         1 UNK         0.0806 
    114 H114       31.1138   30.2520    4.2045 H         1 UNK         0.0806 
    115 H115       31.3272   30.0295    0.9637 H         1 UNK         0.3010 
    116 H116       30.8967   32.9273    0.3495 H         1 UNK         0.0829 
    117 H117       30.6996   31.4032   -1.6294 H         1 UNK         0.0813 
    118 H118       32.1229   32.4267   -1.7501 H         1 UNK         0.0813 
    119 H119       32.2965   30.7388   -1.2900 H         1 UNK         0.0813 
    120 H120       33.1228   30.3950    1.4796 H         1 UNK         0.3038 
    121 H121       35.0183   32.4644    2.4712 H         1 UNK         0.0769 
    122 H122       35.6832   29.6478    1.4171 H         1 UNK         0.0811 
    123 H123       36.8274   30.7684    2.1429 H         1 UNK         0.0811 
    124 H124       36.0893   31.1541    0.5955 H         1 UNK         0.0811 
    125 H125       35.8903   31.8914    4.5521 H         1 UNK         0.3204 
    126 H126       33.9801   30.7145    6.3257 H         1 UNK         0.0748 
    127 H127       36.8822   31.5965    6.8031 H         1 UNK         0.0771 
    128 H128       35.4481   32.6071    6.9943 H         1 UNK         0.0771 
    129 H129       35.7093   31.2378    8.0616 H         1 UNK         0.0771 
    130 H130       34.0228   28.8326    7.5157 H         1 UNK         0.2980 
    131 H131       35.3140   26.5117    6.4682 H         1 UNK         0.0545 
    132 H132       37.0204   25.1997    7.3542 H         1 UNK         0.3459 
    133 H133       38.1261   25.8403    8.5408 H         1 UNK         0.3459 
    134 H134       34.3142   25.3832    8.5248 H         1 UNK         0.0616 
    135 H135       33.7745   26.9427    9.0835 H         1 UNK         0.0616 
    136 H136       32.5086   23.8362    7.5778 H         1 UNK         0.0634 
    137 H137       33.5948   24.2728    6.2782 H         1 UNK         0.0634 
@<TRIPOS>BOND
     1    1    2 1    
     2    1   72 1    
     3    1   73 1    
     4    1   74 1    
     5    2    3 2    
     6    2    4 am   BACKBONE|DICT|INTERRES
     7    4    5 1    
     8    4   75 1    
     9    5    6 1    
    10    5   35 1    
    11    5   76 1    
    12    6    7 1    
    13    6   77 1    
    14    6   78 1    
    15    7    8 1    
    16    8    9 1    
    17    8   79 1    
    18    8   80 1    
    19    9   10 ar   
    20    9   14 ar   
    21   10   11 ar   
    22   10   81 1    
    23   11   12 ar   
    24   11   71 1    
    25   12   13 ar   
    26   12   82 1    
    27   13   14 ar   
    28   13   15 1    
    29   14   83 1    
    30   15   16 1    
    31   15   84 1    
    32   15   85 1    
    33   16   17 1    
    34   17   18 1    
    35   17   86 1    
    36   17   87 1    
    37   18   19 1    
    38   18   37 1    
    39   18   88 1    
    40   19   20 am   BACKBONE|DICT|INTERRES
    41   19   89 1    
    42   20   21 2    
    43   20   22 1    
    44   22   23 1    
    45   22   24 1    
    46   22   90 1    
    47   23   91 1    
    48   23   92 1    
    49   23   93 1    
    50   24   25 am   BACKBONE|DICT|INTERRES
    51   24   94 1    
    52   25   26 2    
    53   25   27 1    
    54   27   28 1    
    55   27   29 1    
    56   27   95 1    
    57   28   96 1    
    58   28   97 1    
    59   28   98 1    
    60   29   30 am   BACKBONE|DICT|INTERRES
    61   29   99 1    
    62   30   31 2    
    63   30   32 1    
    64   32   33 1    
    65   32   34 1    
    66   32  100 1    
    67   33  101 1    
    68   33  102 1    
    69   33  103 1    
    70   34   35 am   BACKBONE|DICT|INTERRES
    71   34  104 1    
    72   35   36 2    
    73   37   38 2    
    74   37   39 am   BACKBONE|DICT|INTERRES
    75   39   40 1    
    76   39  105 1    
    77   40   41 1    
    78   40   42 1    
    79   40  106 1    
    80   41  107 1    
    81   41  108 1    
    82   41  109 1    
    83   42   43 2    
    84   42   44 am   BACKBONE|DICT|INTERRES
    85   44   45 1    
    86   44  110 1    
    87   45   46 1    
    88   45   47 1    
    89   45  111 1    
    90   46  112 1    
    91   46  113 1    
    92   46  114 1    
    93   47   48 2    
    94   47   49 am   BACKBONE|DICT|INTERRES
    95   49   50 1    
    96   49  115 1    
    97   50   51 1    
    98   50   52 1    
    99   50  116 1    
   100   51  117 1    
   101   51  118 1    
   102   51  119 1    
   103   52   53 2    
   104   52   54 am   BACKBONE|DICT|INTERRES
   105   54   55 1    
   106   54  120 1    
   107   55   56 1    
   108   55   57 1    
   109   55  121 1    
   110   56  122 1    
   111   56  123 1    
   112   56  124 1    
   113   57   58 2    
   114   57   59 am   BACKBONE|DICT|INTERRES
   115   59   60 1    
   116   59  125 1    
   117   60   61 1    
   118   60   62 1    
   119   60  126 1    
   120   61  127 1    
   121   61  128 1    
   122   61  129 1    
   123   62   63 2    
   124   62   64 am   BACKBONE|DICT|INTERRES
   125   64   65 1    
   126   64  130 1    
   127   65   66 1    
   128   65   69 1    
   129   65  131 1    
   130   66   67 am   BACKBONE|DICT|INTERRES
   131   66   68 2    
   132   67  132 1    
   133   67  133 1    
   134   69   70 1    
   135   69  134 1    
   136   69  135 1    
   137   70   71 1    
   138   71  136 1    
   139   71  137 1    
@<TRIPOS>SUBSTRUCTURE
     1 UNK         1 GROUP             0       ****    0 ROOT    
