@<TRIPOS>MOLECULE
3R136
137   139    1
SMALL
USER_CHARGES


@<TRIPOS>ATOM
      1 CA         26.8745   19.5843   -1.4917 C.3       0 UNK        -0.1979 
      2 C          27.5505   18.8589   -0.3295 C.2       0 UNK         0.4864 
      3 O          27.2042   17.7103   -0.0567 O.2       0 UNK        -0.5359 
      4 N          28.5199   19.4642    0.3736 N.am      1 UNK        -0.4318 
      5 CA         28.9889   20.8489    0.2410 C.3       1 UNK         0.0824 
      6 C6         30.3400   21.0542    0.9827 C.3       12 UNK        -0.0944 
      7 S7         31.5283   22.0891    0.0616 S.3       12 UNK        -0.2672 
      8 C8         31.1220   23.7923    0.5636 C.3       12 UNK         0.0333 
      9 C9         31.2058   24.0183    2.0660 C.ar      12 UNK        -0.0807 
     10 C10        32.4478   24.2082    2.6823 C.ar      12 UNK        -0.0894 
     11 C11        32.5228   24.4734    4.0529 C.ar      12 UNK        -0.0804 
     12 C12        31.3504   24.5147    4.8116 C.ar      12 UNK        -0.0824 
     13 C13        30.1061   24.3151    4.2094 C.ar      12 UNK        -0.0762 
     14 C14        30.0383   24.0805    2.8346 C.ar      12 UNK        -0.0782 
     15 C15        28.8443   24.3292    5.0571 C.3       12 UNK         0.0230 
     16 S16        28.4092   26.0112    5.5957 S.3       12 UNK        -0.2608 
     17 C17        27.5149   26.6734    4.1518 C.3       12 UNK        -0.0989 
     18 CA         28.1979   27.9473    3.5850 C.3       5 UNK         0.0716 
     19 N          29.0969   27.6660    2.4605 N.am      5 UNK        -0.4135 
     20 C          29.9931   28.5354    1.9699 C.2       4 UNK         0.5031 
     21 O          30.2329   29.6303    2.4775 O.2       4 UNK        -0.5229 
     22 CA         30.7270   28.1477    0.6757 C.3       4 UNK         0.0329 
     23 CB         32.0616   27.4631    0.9920 C.3       4 UNK        -0.2001 
     24 N          29.9167   27.3114   -0.2150 N.am      4 UNK        -0.4303 
     25 C          28.8741   27.7878   -0.9099 C.2       3 UNK         0.5044 
     26 O          28.4977   28.9577   -0.8531 O.2       3 UNK        -0.5152 
     27 CA         28.1004   26.7926   -1.7917 C.3       3 UNK         0.0319 
     28 CB         28.8602   26.5335   -3.1028 C.3       3 UNK        -0.2001 
     29 N          27.7664   25.5101   -1.1567 N.am      3 UNK        -0.4354 
     30 C          27.1304   25.3637    0.0170 C.2       2 UNK         0.4964 
     31 O          26.8856   26.2937    0.7852 O.2       2 UNK        -0.5047 
     32 CA         26.6941   23.9475    0.4142 C.3       2 UNK         0.0288 
     33 CB         25.3185   23.6121   -0.1886 C.3       2 UNK        -0.2113 
     34 N          27.6732   22.9207    0.0386 N.am      2 UNK        -0.4145 
     35 C          27.9157   21.8238    0.7685 C.2       1 UNK         0.5006 
     36 O          27.3444   21.5698    1.8320 O.2       1 UNK        -0.5103 
     37 C          27.1584   29.0139    3.1929 C.2       5 UNK         0.5055 
     38 O          26.9607   29.9643    3.9511 O.2       5 UNK        -0.5220 
     39 N          26.5587   28.8735    2.0004 N.am      6 UNK        -0.4450 
     40 CA         25.6352   29.8481    1.4062 C.3       6 UNK         0.0367 
     41 CB         25.0594   29.2797    0.0997 C.3       6 UNK        -0.1929 
     42 C          26.2776   31.2292    1.1697 C.2       6 UNK         0.5070 
     43 O          25.5951   32.2455    1.2942 O.2       6 UNK        -0.5237 
     44 N          27.5888   31.2435    0.8976 N.am      7 UNK        -0.4739 
     45 CA         28.4389   32.4337    0.8075 C.3       7 UNK         0.0276 
     46 CB         29.6113   32.1253   -0.1393 C.3       7 UNK        -0.1927 
     47 C          28.9288   32.9592    2.1779 C.2       7 UNK         0.5013 
     48 O          29.8641   33.7599    2.2055 O.2       7 UNK        -0.5193 
     49 N          28.2913   32.5267    3.2774 N.am      8 UNK        -0.4253 
     50 CA         28.5223   32.9182    4.6732 C.3       8 UNK         0.0242 
     51 CB         28.3014   34.4329    4.8818 C.3       8 UNK        -0.2000 
     52 C          29.8687   32.4121    5.2209 C.2       8 UNK         0.4948 
     53 O          30.6462   33.1939    5.7716 O.2       8 UNK        -0.5275 
     54 N          30.0940   31.0981    5.0738 N.am      9 UNK        -0.4246 
     55 CA         31.2658   30.3317    5.5217 C.3       9 UNK         0.0261 
     56 CB         31.3570   30.3031    7.0620 C.3       9 UNK        -0.1959 
     57 C          32.5671   30.8003    4.8447 C.2       9 UNK         0.5033 
     58 O          33.5790   31.0283    5.5120 O.2       9 UNK        -0.5390 
     59 N          32.5149   30.9170    3.5118 N.am      10 UNK        -0.4215 
     60 CA         33.6077   31.3834    2.6521 C.3       10 UNK         0.0240 
     61 CB         33.0576   31.6422    1.2410 C.3       10 UNK        -0.1982 
     62 C          34.8291   30.4455    2.5962 C.2       10 UNK         0.4970 
     63 O          35.8830   30.8700    2.1205 O.2       10 UNK        -0.4916 
     64 N          34.6792   29.2035    3.0749 N.am      11 UNK        -0.4279 
     65 CA         35.7597   28.2180    3.2117 C.3       11 UNK         0.1003 
     66 C          36.8067   28.5483    4.3194 C.2       11 UNK         0.5709 
     67 N          36.5438   29.4817    5.2290 N.am      11 UNK        -0.7358 
     68 O          37.8821   27.9539    4.3426 O.2       11 UNK        -0.4999 
     69 C69        35.1955   26.7772    3.3386 C.3       12 UNK        -0.0954 
     70 S70        34.2098   26.5042    4.8516 S.3       12 UNK        -0.2268 
     71 C71        33.8617   24.7224    4.7274 C.3       12 UNK         0.0203 
     72 H72        27.6055   20.0112   -2.1772 H         1 UNK         0.0888 
     73 H73        26.2608   18.8897   -2.0651 H         1 UNK         0.0888 
     74 H74        26.2209   20.3767   -1.1286 H         1 UNK         0.0888 
     75 H75        28.9217   18.9559    1.1481 H         1 UNK         0.3017 
     76 H76        29.1457   21.0356   -0.8227 H         1 UNK         0.0873 
     77 H77        30.2131   21.4215    2.0025 H         1 UNK         0.0745 
     78 H78        30.8446   20.0941    1.1037 H         1 UNK         0.0745 
     79 H79        31.8172   24.4673    0.0624 H         1 UNK         0.0705 
     80 H80        30.1344   24.0555    0.1897 H         1 UNK         0.0705 
     81 H81        33.3523   24.1727    2.0903 H         1 UNK         0.1334 
     82 H82        31.4046   24.7116    5.8739 H         1 UNK         0.1417 
     83 H83        29.0746   23.9357    2.3702 H         1 UNK         0.1562 
     84 H84        29.0082   23.7136    5.9430 H         1 UNK         0.0748 
     85 H85        28.0045   23.8750    4.5282 H         1 UNK         0.0748 
     86 H86        26.5002   26.8798    4.5018 H         1 UNK         0.0940 
     87 H87        27.4013   25.9069    3.3840 H         1 UNK         0.0940 
     88 H88        28.8017   28.3980    4.3755 H         1 UNK         0.0703 
     89 H89        28.9300   26.8103    1.9539 H         1 UNK         0.3081 
     90 H90        30.9555   29.0695    0.1375 H         1 UNK         0.0719 
     91 H91        32.7496   28.1705    1.4521 H         1 UNK         0.0809 
     92 H92        32.5476   27.0802    0.0940 H         1 UNK         0.0809 
     93 H93        31.9344   26.6421    1.6935 H         1 UNK         0.0809 
     94 H94        30.1792   26.3447   -0.3256 H         1 UNK         0.2990 
     95 H95        27.1521   27.2706   -2.0464 H         1 UNK         0.0690 
     96 H96        28.2593   25.9521   -3.8024 H         1 UNK         0.0788 
     97 H97        29.7932   25.9948   -2.9325 H         1 UNK         0.0788 
     98 H98        29.1119   27.4713   -3.6008 H         1 UNK         0.0788 
     99 H99        27.8823   24.6995   -1.7444 H         1 UNK         0.2993 
    100 H100       26.5880   23.9633    1.5016 H         1 UNK         0.0949 
    101 H101       25.3579   23.5460   -1.2764 H         1 UNK         0.0767 
    102 H102       24.9426   22.6614    0.1905 H         1 UNK         0.0767 
    103 H103       24.5817   24.3750    0.0677 H         1 UNK         0.0767 
    104 H104       28.1923   23.0646   -0.8151 H         1 UNK         0.3013 
    105 H105       26.7489   28.0334    1.4576 H         1 UNK         0.3121 
    106 H106       24.8114   29.9877    2.1093 H         1 UNK         0.0774 
    107 H107       25.8358   29.1174   -0.6478 H         1 UNK         0.0815 
    108 H108       24.3284   29.9637   -0.3334 H         1 UNK         0.0815 
    109 H109       24.5544   28.3285    0.2688 H         1 UNK         0.0815 
    110 H110       28.0480   30.3537    0.7407 H         1 UNK         0.2987 
    111 H111       27.8554   33.2409    0.3596 H         1 UNK         0.0949 
    112 H112       30.2503   31.3415    0.2642 H         1 UNK         0.0806 
    113 H113       29.2563   31.7954   -1.1158 H         1 UNK         0.0806 
    114 H114       30.2333   33.0061   -0.3035 H         1 UNK         0.0806 
    115 H115       27.5769   31.8183    3.1522 H         1 UNK         0.3010 
    116 H116       27.7545   32.4041    5.2540 H         1 UNK         0.0829 
    117 H117       29.0616   35.0307    4.3784 H         1 UNK         0.0813 
    118 H118       27.3260   34.7469    4.5101 H         1 UNK         0.0813 
    119 H119       28.3417   34.6881    5.9414 H         1 UNK         0.0813 
    120 H120       29.4181   30.5756    4.5320 H         1 UNK         0.3038 
    121 H121       31.1053   29.3050    5.1885 H         1 UNK         0.0769 
    122 H122       32.1608   29.6434    7.3912 H         1 UNK         0.0811 
    123 H123       31.5596   31.2915    7.4757 H         1 UNK         0.0811 
    124 H124       30.4330   29.9346    7.5073 H         1 UNK         0.0811 
    125 H125       31.6437   30.6540    3.0523 H         1 UNK         0.3204 
    126 H126       33.9589   32.3343    3.0581 H         1 UNK         0.0748 
    127 H127       32.2647   32.3899    1.2616 H         1 UNK         0.0771 
    128 H128       33.8367   32.0199    0.5774 H         1 UNK         0.0771 
    129 H129       32.6574   30.7338    0.7908 H         1 UNK         0.0771 
    130 H130       33.7934   28.9429    3.4796 H         1 UNK         0.2980 
    131 H131       36.3201   28.2450    2.2749 H         1 UNK         0.0545 
    132 H132       35.6558   29.9650    5.2302 H         1 UNK         0.3459 
    133 H133       37.2313   29.6887    5.9360 H         1 UNK         0.3459 
    134 H134       34.5708   26.5457    2.4746 H         1 UNK         0.0616 
    135 H135       36.0122   26.0533    3.3174 H         1 UNK         0.0616 
    136 H136       34.6658   24.2126    4.1945 H         1 UNK         0.0634 
    137 H137       33.8489   24.2988    5.7329 H         1 UNK         0.0634 
@<TRIPOS>BOND
     1    1    2 1    
     2    1   72 1    
     3    1   73 1    
     4    1   74 1    
     5    2    3 2    
     6    2    4 am   BACKBONE|DICT|INTERRES
     7    4    5 1    
     8    4   75 1    
     9    5    6 1    
    10    5   35 1    
    11    5   76 1    
    12    6    7 1    
    13    6   77 1    
    14    6   78 1    
    15    7    8 1    
    16    8    9 1    
    17    8   79 1    
    18    8   80 1    
    19    9   10 ar   
    20    9   14 ar   
    21   10   11 ar   
    22   10   81 1    
    23   11   12 ar   
    24   11   71 1    
    25   12   13 ar   
    26   12   82 1    
    27   13   14 ar   
    28   13   15 1    
    29   14   83 1    
    30   15   16 1    
    31   15   84 1    
    32   15   85 1    
    33   16   17 1    
    34   17   18 1    
    35   17   86 1    
    36   17   87 1    
    37   18   19 1    
    38   18   37 1    
    39   18   88 1    
    40   19   20 am   BACKBONE|DICT|INTERRES
    41   19   89 1    
    42   20   21 2    
    43   20   22 1    
    44   22   23 1    
    45   22   24 1    
    46   22   90 1    
    47   23   91 1    
    48   23   92 1    
    49   23   93 1    
    50   24   25 am   BACKBONE|DICT|INTERRES
    51   24   94 1    
    52   25   26 2    
    53   25   27 1    
    54   27   28 1    
    55   27   29 1    
    56   27   95 1    
    57   28   96 1    
    58   28   97 1    
    59   28   98 1    
    60   29   30 am   BACKBONE|DICT|INTERRES
    61   29   99 1    
    62   30   31 2    
    63   30   32 1    
    64   32   33 1    
    65   32   34 1    
    66   32  100 1    
    67   33  101 1    
    68   33  102 1    
    69   33  103 1    
    70   34   35 am   BACKBONE|DICT|INTERRES
    71   34  104 1    
    72   35   36 2    
    73   37   38 2    
    74   37   39 am   BACKBONE|DICT|INTERRES
    75   39   40 1    
    76   39  105 1    
    77   40   41 1    
    78   40   42 1    
    79   40  106 1    
    80   41  107 1    
    81   41  108 1    
    82   41  109 1    
    83   42   43 2    
    84   42   44 am   BACKBONE|DICT|INTERRES
    85   44   45 1    
    86   44  110 1    
    87   45   46 1    
    88   45   47 1    
    89   45  111 1    
    90   46  112 1    
    91   46  113 1    
    92   46  114 1    
    93   47   48 2    
    94   47   49 am   BACKBONE|DICT|INTERRES
    95   49   50 1    
    96   49  115 1    
    97   50   51 1    
    98   50   52 1    
    99   50  116 1    
   100   51  117 1    
   101   51  118 1    
   102   51  119 1    
   103   52   53 2    
   104   52   54 am   BACKBONE|DICT|INTERRES
   105   54   55 1    
   106   54  120 1    
   107   55   56 1    
   108   55   57 1    
   109   55  121 1    
   110   56  122 1    
   111   56  123 1    
   112   56  124 1    
   113   57   58 2    
   114   57   59 am   BACKBONE|DICT|INTERRES
   115   59   60 1    
   116   59  125 1    
   117   60   61 1    
   118   60   62 1    
   119   60  126 1    
   120   61  127 1    
   121   61  128 1    
   122   61  129 1    
   123   62   63 2    
   124   62   64 am   BACKBONE|DICT|INTERRES
   125   64   65 1    
   126   64  130 1    
   127   65   66 1    
   128   65   69 1    
   129   65  131 1    
   130   66   67 am   BACKBONE|DICT|INTERRES
   131   66   68 2    
   132   67  132 1    
   133   67  133 1    
   134   69   70 1    
   135   69  134 1    
   136   69  135 1    
   137   70   71 1    
   138   71  136 1    
   139   71  137 1    
@<TRIPOS>SUBSTRUCTURE
     1 UNK         1 GROUP             0       ****    0 ROOT    
