@<TRIPOS>MOLECULE
3R136
137   139    1
SMALL
USER_CHARGES


@<TRIPOS>ATOM
      1 CA         26.2292   22.8009    4.9768 C.3       0 UNK        -0.1979 
      2 C          26.6614   23.0586    3.5419 C.2       0 UNK         0.4864 
      3 O          25.9577   23.7535    2.8078 O.2       0 UNK        -0.5359 
      4 N          27.8203   22.5194    3.1374 N.am      1 UNK        -0.4318 
      5 CA         28.3930   22.6616    1.7921 C.3       1 UNK         0.0824 
      6 C6         29.6420   21.7666    1.5888 C.3       12 UNK        -0.0944 
      7 S7         30.9977   22.0661    2.7828 S.3       12 UNK        -0.2672 
      8 C8         32.4445   22.2591    1.6914 C.3       12 UNK         0.0333 
      9 C9         32.5877   23.6778    1.1553 C.ar      12 UNK        -0.0807 
     10 C10        33.3961   24.6042    1.8228 C.ar      12 UNK        -0.0894 
     11 C11        33.5651   25.8995    1.3195 C.ar      12 UNK        -0.0804 
     12 C12        32.9128   26.2628    0.1367 C.ar      12 UNK        -0.0824 
     13 C13        32.1060   25.3448   -0.5422 C.ar      12 UNK        -0.0762 
     14 C14        31.9492   24.0547   -0.0292 C.ar      12 UNK        -0.0782 
     15 C15        31.4088   25.7384   -1.8347 C.3       12 UNK         0.0230 
     16 S16        29.9316   26.7339   -1.4887 S.3       12 UNK        -0.2608 
     17 C17        28.9270   26.4313   -2.9764 C.3       12 UNK        -0.0989 
     18 CA         27.4500   26.8749   -2.8281 C.3       5 UNK         0.0716 
     19 N          26.7421   26.1313   -1.7741 N.am      5 UNK        -0.4135 
     20 C          25.4209   25.8973   -1.7901 C.2       4 UNK         0.5031 
     21 O          24.6801   26.2297   -2.7166 O.2       4 UNK        -0.5229 
     22 CA         24.8058   25.2009   -0.5632 C.3       4 UNK         0.0329 
     23 CB         25.0303   23.6812   -0.6191 C.3       4 UNK        -0.2001 
     24 N          25.2898   25.7329    0.7130 N.am      4 UNK        -0.4303 
     25 C          25.0953   26.9894    1.1417 C.2       3 UNK         0.5044 
     26 O          24.4785   27.8449    0.5076 O.2       3 UNK        -0.5152 
     27 CA         25.7209   27.3704    2.4925 C.3       3 UNK         0.0319 
     28 CB         24.8049   26.9685    3.6596 C.3       3 UNK        -0.2001 
     29 N          27.0451   26.7747    2.6694 N.am      3 UNK        -0.4354 
     30 C          28.1370   27.1652    1.9963 C.2       2 UNK         0.4964 
     31 O          28.1470   28.1039    1.2022 O.2       2 UNK        -0.5047 
     32 CA         29.4213   26.3530    2.2265 C.3       2 UNK         0.0288 
     33 CB         30.1577   26.8516    3.4782 C.3       2 UNK        -0.2113 
     34 N          29.1734   24.9167    2.3531 N.am      2 UNK        -0.4145 
     35 C          28.6489   24.1314    1.4000 C.2       1 UNK         0.5006 
     36 O          28.3110   24.5258    0.2832 O.2       1 UNK        -0.5103 
     37 C          27.3184   28.4102   -2.6844 C.2       5 UNK         0.5055 
     38 O          27.6527   29.1233   -3.6323 O.2       5 UNK        -0.5220 
     39 N          26.8437   28.8857   -1.5220 N.am      6 UNK        -0.4450 
     40 CA         26.7133   30.2881   -1.1098 C.3       6 UNK         0.0367 
     41 CB         25.7064   31.0468   -2.0008 C.3       6 UNK        -0.1929 
     42 C          28.0792   30.9927   -0.9861 C.2       6 UNK         0.5070 
     43 O          28.2518   32.1128   -1.4718 O.2       6 UNK        -0.5237 
     44 N          29.0251   30.3148   -0.3272 N.am      7 UNK        -0.4739 
     45 CA         30.3365   30.8394    0.0512 C.3       7 UNK         0.0276 
     46 CB         31.3243   29.6617    0.1450 C.3       7 UNK        -0.1927 
     47 C          30.2647   31.6087    1.3833 C.2       7 UNK         0.5013 
     48 O          29.2068   31.6751    2.0170 O.2       7 UNK        -0.5193 
     49 N          31.4089   32.1740    1.7905 N.am      8 UNK        -0.4253 
     50 CA         31.6085   32.8083    3.0956 C.3       8 UNK         0.0242 
     51 CB         32.9680   33.5279    3.0954 C.3       8 UNK        -0.2000 
     52 C          31.5373   31.7914    4.2511 C.2       8 UNK         0.4948 
     53 O          31.7853   30.6011    4.0463 O.2       8 UNK        -0.5275 
     54 N          31.2142   32.2890    5.4502 N.am      9 UNK        -0.4246 
     55 CA         31.1369   31.5015    6.6821 C.3       9 UNK         0.0261 
     56 CB         30.4346   32.3436    7.7617 C.3       9 UNK        -0.1959 
     57 C          32.5195   31.0376    7.1781 C.2       9 UNK         0.5033 
     58 O          33.5342   31.6607    6.8543 O.2       9 UNK        -0.5390 
     59 N          32.5072   29.9832    8.0062 N.am      10 UNK        -0.4215 
     60 CA         33.6549   29.3800    8.6956 C.3       10 UNK         0.0240 
     61 CB         34.2788   30.3695    9.7055 C.3       10 UNK        -0.1982 
     62 C          34.6898   28.7516    7.7409 C.2       10 UNK         0.4970 
     63 O          35.8934   28.9549    7.9158 O.2       10 UNK        -0.4916 
     64 N          34.2028   27.9689    6.7682 N.am      11 UNK        -0.4279 
     65 CA         35.0208   27.0787    5.9279 C.3       11 UNK         0.1003 
     66 C          35.7339   25.9763    6.7624 C.2       11 UNK         0.5709 
     67 N          36.9463   25.5962    6.3824 N.am      11 UNK        -0.7358 
     68 O          35.1820   25.4370    7.7205 O.2       11 UNK        -0.4999 
     69 C69        34.1783   26.4327    4.7970 C.3       12 UNK        -0.0954 
     70 S70        33.7228   27.6324    3.5009 S.3       12 UNK        -0.2268 
     71 C71        34.4842   26.8964    2.0181 C.3       12 UNK         0.0203 
     72 H72        26.1137   23.7449    5.5086 H         1 UNK         0.0888 
     73 H73        25.2708   22.2828    4.9904 H         1 UNK         0.0888 
     74 H74        26.9530   22.1916    5.5178 H         1 UNK         0.0888 
     75 H75        28.3662   21.9664    3.7835 H         1 UNK         0.3017 
     76 H76        27.6294   22.2983    1.1009 H         1 UNK         0.0873 
     77 H77        30.0084   21.8591    0.5662 H         1 UNK         0.0745 
     78 H78        29.3500   20.7201    1.6888 H         1 UNK         0.0745 
     79 H79        32.3894   21.5437    0.8694 H         1 UNK         0.0705 
     80 H80        33.3380   21.9910    2.2572 H         1 UNK         0.0705 
     81 H81        33.9040   24.3066    2.7283 H         1 UNK         0.1334 
     82 H82        33.0375   27.2592   -0.2639 H         1 UNK         0.1417 
     83 H83        31.3312   23.3439   -0.5590 H         1 UNK         0.1562 
     84 H84        31.1318   24.8458   -2.3975 H         1 UNK         0.0748 
     85 H85        32.0877   26.3075   -2.4712 H         1 UNK         0.0748 
     86 H86        28.9567   25.3658   -3.2090 H         1 UNK         0.0940 
     87 H87        29.3970   26.9345   -3.8238 H         1 UNK         0.0940 
     88 H88        26.9693   26.6322   -3.7784 H         1 UNK         0.0703 
     89 H89        27.3057   25.7834   -1.0024 H         1 UNK         0.3081 
     90 H90        23.7286   25.3777   -0.5943 H         1 UNK         0.0719 
     91 H91        24.5592   23.1789    0.2262 H         1 UNK         0.0809 
     92 H92        24.6012   23.2587   -1.5285 H         1 UNK         0.0809 
     93 H93        26.0893   23.4251   -0.6117 H         1 UNK         0.0809 
     94 H94        25.7627   25.0802    1.3320 H         1 UNK         0.2990 
     95 H95        25.8326   28.4569    2.5123 H         1 UNK         0.0690 
     96 H96        23.8255   27.4390    3.5628 H         1 UNK         0.0788 
     97 H97        25.2211   27.2827    4.6168 H         1 UNK         0.0788 
     98 H98        24.6438   25.8910    3.7007 H         1 UNK         0.0788 
     99 H99        27.1050   25.9622    3.2658 H         1 UNK         0.2993 
    100 H100       30.0752   26.5005    1.3663 H         1 UNK         0.0949 
    101 H101       29.5476   26.7558    4.3770 H         1 UNK         0.0767 
    102 H102       31.0796   26.2926    3.6371 H         1 UNK         0.0767 
    103 H103       30.4307   27.9035    3.3759 H         1 UNK         0.0767 
    104 H104       29.4328   24.4841    3.2274 H         1 UNK         0.3013 
    105 H105       26.6317   28.2103   -0.8001 H         1 UNK         0.3121 
    106 H106       26.2980   30.2629   -0.1009 H         1 UNK         0.0774 
    107 H107       26.0732   31.1678   -3.0203 H         1 UNK         0.0815 
    108 H108       25.5152   32.0452   -1.6060 H         1 UNK         0.0815 
    109 H109       24.7492   30.5275   -2.0462 H         1 UNK         0.0815 
    110 H110       28.7589   29.4331    0.1093 H         1 UNK         0.2987 
    111 H111       30.6859   31.5307   -0.7189 H         1 UNK         0.0949 
    112 H112       31.0005   28.9215    0.8783 H         1 UNK         0.0806 
    113 H113       31.4235   29.1611   -0.8173 H         1 UNK         0.0806 
    114 H114       32.3237   29.9878    0.4339 H         1 UNK         0.0806 
    115 H115       32.2352   32.0506    1.2246 H         1 UNK         0.3010 
    116 H116       30.8169   33.5480    3.2353 H         1 UNK         0.0829 
    117 H117       33.0223   34.2778    2.3058 H         1 UNK         0.0813 
    118 H118       33.1400   34.0434    4.0413 H         1 UNK         0.0813 
    119 H119       33.7931   32.8284    2.9542 H         1 UNK         0.0813 
    120 H120       31.0712   33.2840    5.5426 H         1 UNK         0.3038 
    121 H121       30.5294   30.6170    6.4773 H         1 UNK         0.0769 
    122 H122       31.0012   33.2445    8.0016 H         1 UNK         0.0811 
    123 H123       30.3154   31.7799    8.6879 H         1 UNK         0.0811 
    124 H124       29.4378   32.6486    7.4424 H         1 UNK         0.0811 
    125 H125       31.6135   29.5537    8.2045 H         1 UNK         0.3204 
    126 H126       33.2515   28.5484    9.2756 H         1 UNK         0.0748 
    127 H127       35.0400   29.8789   10.3136 H         1 UNK         0.0771 
    128 H128       34.7576   31.2129    9.2070 H         1 UNK         0.0771 
    129 H129       33.5276   30.7662   10.3884 H         1 UNK         0.0771 
    130 H130       33.2039   27.8632    6.6814 H         1 UNK         0.2980 
    131 H131       35.7979   27.6936    5.4688 H         1 UNK         0.0545 
    132 H132       37.4176   24.8725    6.9022 H         1 UNK         0.3459 
    133 H133       37.4042   26.0241    5.5927 H         1 UNK         0.3459 
    134 H134       34.7366   25.6179    4.3357 H         1 UNK         0.0616 
    135 H135       33.2676   25.9827    5.1963 H         1 UNK         0.0616 
    136 H136       35.4308   26.4191    2.2748 H         1 UNK         0.0634 
    137 H137       34.7388   27.7080    1.3350 H         1 UNK         0.0634 
@<TRIPOS>BOND
     1    1    2 1    
     2    1   72 1    
     3    1   73 1    
     4    1   74 1    
     5    2    3 2    
     6    2    4 am   BACKBONE|DICT|INTERRES
     7    4    5 1    
     8    4   75 1    
     9    5    6 1    
    10    5   35 1    
    11    5   76 1    
    12    6    7 1    
    13    6   77 1    
    14    6   78 1    
    15    7    8 1    
    16    8    9 1    
    17    8   79 1    
    18    8   80 1    
    19    9   10 ar   
    20    9   14 ar   
    21   10   11 ar   
    22   10   81 1    
    23   11   12 ar   
    24   11   71 1    
    25   12   13 ar   
    26   12   82 1    
    27   13   14 ar   
    28   13   15 1    
    29   14   83 1    
    30   15   16 1    
    31   15   84 1    
    32   15   85 1    
    33   16   17 1    
    34   17   18 1    
    35   17   86 1    
    36   17   87 1    
    37   18   19 1    
    38   18   37 1    
    39   18   88 1    
    40   19   20 am   BACKBONE|DICT|INTERRES
    41   19   89 1    
    42   20   21 2    
    43   20   22 1    
    44   22   23 1    
    45   22   24 1    
    46   22   90 1    
    47   23   91 1    
    48   23   92 1    
    49   23   93 1    
    50   24   25 am   BACKBONE|DICT|INTERRES
    51   24   94 1    
    52   25   26 2    
    53   25   27 1    
    54   27   28 1    
    55   27   29 1    
    56   27   95 1    
    57   28   96 1    
    58   28   97 1    
    59   28   98 1    
    60   29   30 am   BACKBONE|DICT|INTERRES
    61   29   99 1    
    62   30   31 2    
    63   30   32 1    
    64   32   33 1    
    65   32   34 1    
    66   32  100 1    
    67   33  101 1    
    68   33  102 1    
    69   33  103 1    
    70   34   35 am   BACKBONE|DICT|INTERRES
    71   34  104 1    
    72   35   36 2    
    73   37   38 2    
    74   37   39 am   BACKBONE|DICT|INTERRES
    75   39   40 1    
    76   39  105 1    
    77   40   41 1    
    78   40   42 1    
    79   40  106 1    
    80   41  107 1    
    81   41  108 1    
    82   41  109 1    
    83   42   43 2    
    84   42   44 am   BACKBONE|DICT|INTERRES
    85   44   45 1    
    86   44  110 1    
    87   45   46 1    
    88   45   47 1    
    89   45  111 1    
    90   46  112 1    
    91   46  113 1    
    92   46  114 1    
    93   47   48 2    
    94   47   49 am   BACKBONE|DICT|INTERRES
    95   49   50 1    
    96   49  115 1    
    97   50   51 1    
    98   50   52 1    
    99   50  116 1    
   100   51  117 1    
   101   51  118 1    
   102   51  119 1    
   103   52   53 2    
   104   52   54 am   BACKBONE|DICT|INTERRES
   105   54   55 1    
   106   54  120 1    
   107   55   56 1    
   108   55   57 1    
   109   55  121 1    
   110   56  122 1    
   111   56  123 1    
   112   56  124 1    
   113   57   58 2    
   114   57   59 am   BACKBONE|DICT|INTERRES
   115   59   60 1    
   116   59  125 1    
   117   60   61 1    
   118   60   62 1    
   119   60  126 1    
   120   61  127 1    
   121   61  128 1    
   122   61  129 1    
   123   62   63 2    
   124   62   64 am   BACKBONE|DICT|INTERRES
   125   64   65 1    
   126   64  130 1    
   127   65   66 1    
   128   65   69 1    
   129   65  131 1    
   130   66   67 am   BACKBONE|DICT|INTERRES
   131   66   68 2    
   132   67  132 1    
   133   67  133 1    
   134   69   70 1    
   135   69  134 1    
   136   69  135 1    
   137   70   71 1    
   138   71  136 1    
   139   71  137 1    
@<TRIPOS>SUBSTRUCTURE
     1 UNK         1 GROUP             0       ****    0 ROOT    
