@<TRIPOS>MOLECULE
3R136
137   139    1
SMALL
USER_CHARGES


@<TRIPOS>ATOM
      1 CA         26.0198   23.3927    3.2052 C.3       0 UNK        -0.1979 
      2 C          26.4613   22.7129    1.9183 C.2       0 UNK         0.4864 
      3 O          25.7386   21.8609    1.4002 O.2       0 UNK        -0.5359 
      4 N          27.6467   23.0731    1.4069 N.am      1 UNK        -0.4318 
      5 CA         28.2865   22.4431    0.2453 C.3       1 UNK         0.0824 
      6 C6         29.7865   22.8096    0.1347 C.3       12 UNK        -0.0944 
      7 S7         30.1264   24.5908   -0.0896 S.3       12 UNK        -0.2672 
      8 C8         31.9031   24.6336    0.3318 C.3       12 UNK         0.0333 
      9 C9         32.2099   25.1275    1.7455 C.ar      12 UNK        -0.0807 
     10 C10        33.4133   25.8018    1.9747 C.ar      12 UNK        -0.0894 
     11 C11        33.7216   26.3055    3.2405 C.ar      12 UNK        -0.0804 
     12 C12        32.8169   26.1300    4.2900 C.ar      12 UNK        -0.0824 
     13 C13        31.6159   25.4450    4.0857 C.ar      12 UNK        -0.0762 
     14 C14        31.3318   24.9244    2.8182 C.ar      12 UNK        -0.0782 
     15 C15        30.6319   25.2897    5.2424 C.3       12 UNK         0.0230 
     16 S16        28.8990   25.6772    4.8077 S.3       12 UNK        -0.2608 
     17 C17        29.0364   27.2941    3.9703 C.3       12 UNK        -0.0989 
     18 CA         28.4138   27.2386    2.5541 C.3       5 UNK         0.0716 
     19 N          26.9523   27.1202    2.6198 N.am      5 UNK        -0.4135 
     20 C          26.1750   26.6113    1.6585 C.2       4 UNK         0.5031 
     21 O          26.6208   26.0975    0.6255 O.2       4 UNK        -0.5229 
     22 CA         24.6584   26.7174    1.8785 C.3       4 UNK         0.0329 
     23 CB         24.1835   28.1693    1.7005 C.3       4 UNK        -0.2001 
     24 N          24.0027   25.8842    0.8805 N.am      4 UNK        -0.4303 
     25 C          23.1185   24.9076    1.0935 C.2       3 UNK         0.5044 
     26 O          22.5648   24.7082    2.1750 O.2       3 UNK        -0.5152 
     27 CA         22.8485   23.9462   -0.0821 C.3       3 UNK         0.0319 
     28 CB         21.6046   24.3708   -0.8874 C.3       3 UNK        -0.2001 
     29 N          24.0242   23.7220   -0.9437 N.am      3 UNK        -0.4354 
     30 C          24.6182   24.5728   -1.7968 C.2       2 UNK         0.4964 
     31 O          24.1876   25.6970   -2.0558 O.2       2 UNK        -0.5047 
     32 CA         25.9763   24.1258   -2.3523 C.3       2 UNK         0.0288 
     33 CB         26.6644   25.2035   -3.2117 C.3       2 UNK        -0.2113 
     34 N          26.8390   23.7949   -1.2199 N.am      2 UNK        -0.4145 
     35 C          27.5333   22.6587   -1.0855 C.2       1 UNK         0.5006 
     36 O          27.5786   21.7796   -1.9486 O.2       1 UNK        -0.5103 
     37 C          28.7985   28.4485    1.6754 C.2       5 UNK         0.5055 
     38 O          29.3383   29.4389    2.1711 O.2       5 UNK        -0.5220 
     39 N          28.4701   28.3496    0.3806 N.am      6 UNK        -0.4450 
     40 CA         28.5285   29.4192   -0.6198 C.3       6 UNK         0.0367 
     41 CB         27.8803   28.9086   -1.9172 C.3       6 UNK        -0.1929 
     42 C          29.9300   29.9876   -0.9087 C.2       6 UNK         0.5070 
     43 O          30.0221   31.0704   -1.4877 O.2       6 UNK        -0.5237 
     44 N          30.9887   29.2633   -0.5203 N.am      7 UNK        -0.4739 
     45 CA         32.3858   29.6670   -0.6987 C.3       7 UNK         0.0276 
     46 CB         33.3057   28.5006   -0.3124 C.3       7 UNK        -0.1927 
     47 C          32.7740   30.9291    0.0919 C.2       7 UNK         0.5013 
     48 O          33.5552   31.7282   -0.4249 O.2       7 UNK        -0.5193 
     49 N          32.2188   31.0785    1.3047 N.am      8 UNK        -0.4253 
     50 CA         32.4145   32.1996    2.2362 C.3       8 UNK         0.0242 
     51 CB         33.9062   32.5508    2.4550 C.3       8 UNK        -0.2000 
     52 C          31.7889   31.9103    3.6067 C.2       8 UNK         0.4948 
     53 O          31.4370   32.8593    4.3080 O.2       8 UNK        -0.5275 
     54 N          31.7302   30.6293    4.0060 N.am      9 UNK        -0.4246 
     55 CA         31.3026   30.0960    5.3120 C.3       9 UNK         0.0261 
     56 CB         29.8679   30.5246    5.6771 C.3       9 UNK        -0.1959 
     57 C          32.2893   30.4040    6.4513 C.2       9 UNK         0.5033 
     58 O          32.6365   29.4978    7.2098 O.2       9 UNK        -0.5390 
     59 N          32.7906   31.6458    6.5037 N.am      10 UNK        -0.4215 
     60 CA         33.8789   32.1095    7.3738 C.3       10 UNK         0.0240 
     61 CB         34.0610   33.6236    7.1801 C.3       10 UNK        -0.1982 
     62 C          35.2152   31.3721    7.1486 C.2       10 UNK         0.4970 
     63 O          36.0697   31.3873    8.0351 O.2       10 UNK        -0.4916 
     64 N          35.3557   30.7232    5.9857 N.am      11 UNK        -0.4279 
     65 CA         36.4031   29.7480    5.6612 C.3       11 UNK         0.1003 
     66 C          36.3947   28.4593    6.5385 C.2       11 UNK         0.5709 
     67 N          35.3113   28.1253    7.2328 N.am      11 UNK        -0.7358 
     68 O          37.3974   27.7514    6.5901 O.2       11 UNK        -0.4999 
     69 C69        36.3958   29.4092    4.1442 C.3       12 UNK        -0.0954 
     70 S70        34.7732   28.8372    3.5213 S.3       12 UNK        -0.2268 
     71 C71        35.0303   27.0387    3.4817 C.3       12 UNK         0.0203 
     72 H72        26.0269   22.6753    4.0252 H         1 UNK         0.0888 
     73 H73        26.6751   24.2189    3.4754 H         1 UNK         0.0888 
     74 H74        25.0073   23.7790    3.1053 H         1 UNK         0.0888 
     75 H75        28.1766   23.8112    1.8456 H         1 UNK         0.3017 
     76 H76        28.2452   21.3668    0.4280 H         1 UNK         0.0873 
     77 H77        30.2487   22.2654   -0.6914 H         1 UNK         0.0745 
     78 H78        30.3030   22.4679    1.0333 H         1 UNK         0.0745 
     79 H79        32.3478   23.6473    0.1934 H         1 UNK         0.0705 
     80 H80        32.3886   25.2869   -0.3942 H         1 UNK         0.0705 
     81 H81        34.1110   25.9457    1.1609 H         1 UNK         0.1334 
     82 H82        33.0520   26.5341    5.2659 H         1 UNK         0.1417 
     83 H83        30.4085   24.3850    2.6689 H         1 UNK         0.1562 
     84 H84        30.9202   25.9311    6.0770 H         1 UNK         0.0748 
     85 H85        30.6811   24.2646    5.6113 H         1 UNK         0.0748 
     86 H86        30.0849   27.5838    3.9118 H         1 UNK         0.0940 
     87 H87        28.5480   28.0522    4.5837 H         1 UNK         0.0940 
     88 H88        28.8158   26.3573    2.0503 H         1 UNK         0.0703 
     89 H89        26.5149   27.5342    3.4301 H         1 UNK         0.3081 
     90 H90        24.4246   26.3683    2.8865 H         1 UNK         0.0719 
     91 H91        24.6291   28.8287    2.4462 H         1 UNK         0.0809 
     92 H92        24.4461   28.5620    0.7169 H         1 UNK         0.0809 
     93 H93        23.1014   28.2452    1.8103 H         1 UNK         0.0809 
     94 H94        24.3964   25.9536   -0.0525 H         1 UNK         0.2990 
     95 H95        22.6307   22.9739    0.3631 H         1 UNK         0.0690 
     96 H96        21.4032   23.6762   -1.7028 H         1 UNK         0.0788 
     97 H97        21.7103   25.3689   -1.3130 H         1 UNK         0.0788 
     98 H98        20.7201   24.3875   -0.2493 H         1 UNK         0.0788 
     99 H99        24.5080   22.8517   -0.7615 H         1 UNK         0.2993 
    100 H100       25.7921   23.2479   -2.9755 H         1 UNK         0.0949 
    101 H101       26.8522   26.1114   -2.6379 H         1 UNK         0.0767 
    102 H102       27.6204   24.8492   -3.5978 H         1 UNK         0.0767 
    103 H103       26.0471   25.4760   -4.0686 H         1 UNK         0.0767 
    104 H104       26.8564   24.4752   -0.4634 H         1 UNK         0.3013 
    105 H105       28.0048   27.4934    0.0951 H         1 UNK         0.3121 
    106 H106       27.9259   30.2470   -0.2406 H         1 UNK         0.0774 
    107 H107       27.8533   29.6910   -2.6770 H         1 UNK         0.0815 
    108 H108       28.4327   28.0666   -2.3363 H         1 UNK         0.0815 
    109 H109       26.8518   28.5874   -1.7497 H         1 UNK         0.0815 
    110 H110       30.8171   28.3788   -0.0649 H         1 UNK         0.2987 
    111 H111       32.5348   29.8844   -1.7588 H         1 UNK         0.0949 
    112 H112       33.0927   27.6098   -0.9029 H         1 UNK         0.0806 
    113 H113       34.3530   28.7570   -0.4784 H         1 UNK         0.0806 
    114 H114       33.1983   28.2474    0.7420 H         1 UNK         0.0806 
    115 H115       31.5022   30.4128    1.5691 H         1 UNK         0.3010 
    116 H116       31.9022   33.0696    1.8215 H         1 UNK         0.0829 
    117 H117       34.5060   31.6656    2.6632 H         1 UNK         0.0813 
    118 H118       34.0369   33.2369    3.2934 H         1 UNK         0.0813 
    119 H119       34.3368   33.0498    1.5878 H         1 UNK         0.0813 
    120 H120       32.1218   29.9363    3.3837 H         1 UNK         0.3038 
    121 H121       31.3031   29.0122    5.1966 H         1 UNK         0.0769 
    122 H122       29.1791   30.3519    4.8506 H         1 UNK         0.0811 
    123 H123       29.8087   31.5809    5.9405 H         1 UNK         0.0811 
    124 H124       29.5019   29.9580    6.5340 H         1 UNK         0.0811 
    125 H125       32.4117   32.3146    5.8362 H         1 UNK         0.3204 
    126 H126       33.5772   31.9246    8.4066 H         1 UNK         0.0748 
    127 H127       34.3393   33.8681    6.1540 H         1 UNK         0.0771 
    128 H128       33.1462   34.1669    7.4180 H         1 UNK         0.0771 
    129 H129       34.8449   34.0108    7.8327 H         1 UNK         0.0771 
    130 H130       34.5965   30.7668    5.3243 H         1 UNK         0.2980 
    131 H131       37.3549   30.2376    5.8744 H         1 UNK         0.0545 
    132 H132       35.3320   27.2928    7.7990 H         1 UNK         0.3459 
    133 H133       34.4670   28.6862    7.1959 H         1 UNK         0.3459 
    134 H134       37.1668   28.6754    3.9016 H         1 UNK         0.0616 
    135 H135       36.6610   30.3031    3.5779 H         1 UNK         0.0616 
    136 H136       35.4605   26.7025    4.4255 H         1 UNK         0.0634 
    137 H137       35.7586   26.7974    2.7060 H         1 UNK         0.0634 
@<TRIPOS>BOND
     1    1    2 1    
     2    1   72 1    
     3    1   73 1    
     4    1   74 1    
     5    2    3 2    
     6    2    4 am   BACKBONE|DICT|INTERRES
     7    4    5 1    
     8    4   75 1    
     9    5    6 1    
    10    5   35 1    
    11    5   76 1    
    12    6    7 1    
    13    6   77 1    
    14    6   78 1    
    15    7    8 1    
    16    8    9 1    
    17    8   79 1    
    18    8   80 1    
    19    9   10 ar   
    20    9   14 ar   
    21   10   11 ar   
    22   10   81 1    
    23   11   12 ar   
    24   11   71 1    
    25   12   13 ar   
    26   12   82 1    
    27   13   14 ar   
    28   13   15 1    
    29   14   83 1    
    30   15   16 1    
    31   15   84 1    
    32   15   85 1    
    33   16   17 1    
    34   17   18 1    
    35   17   86 1    
    36   17   87 1    
    37   18   19 1    
    38   18   37 1    
    39   18   88 1    
    40   19   20 am   BACKBONE|DICT|INTERRES
    41   19   89 1    
    42   20   21 2    
    43   20   22 1    
    44   22   23 1    
    45   22   24 1    
    46   22   90 1    
    47   23   91 1    
    48   23   92 1    
    49   23   93 1    
    50   24   25 am   BACKBONE|DICT|INTERRES
    51   24   94 1    
    52   25   26 2    
    53   25   27 1    
    54   27   28 1    
    55   27   29 1    
    56   27   95 1    
    57   28   96 1    
    58   28   97 1    
    59   28   98 1    
    60   29   30 am   BACKBONE|DICT|INTERRES
    61   29   99 1    
    62   30   31 2    
    63   30   32 1    
    64   32   33 1    
    65   32   34 1    
    66   32  100 1    
    67   33  101 1    
    68   33  102 1    
    69   33  103 1    
    70   34   35 am   BACKBONE|DICT|INTERRES
    71   34  104 1    
    72   35   36 2    
    73   37   38 2    
    74   37   39 am   BACKBONE|DICT|INTERRES
    75   39   40 1    
    76   39  105 1    
    77   40   41 1    
    78   40   42 1    
    79   40  106 1    
    80   41  107 1    
    81   41  108 1    
    82   41  109 1    
    83   42   43 2    
    84   42   44 am   BACKBONE|DICT|INTERRES
    85   44   45 1    
    86   44  110 1    
    87   45   46 1    
    88   45   47 1    
    89   45  111 1    
    90   46  112 1    
    91   46  113 1    
    92   46  114 1    
    93   47   48 2    
    94   47   49 am   BACKBONE|DICT|INTERRES
    95   49   50 1    
    96   49  115 1    
    97   50   51 1    
    98   50   52 1    
    99   50  116 1    
   100   51  117 1    
   101   51  118 1    
   102   51  119 1    
   103   52   53 2    
   104   52   54 am   BACKBONE|DICT|INTERRES
   105   54   55 1    
   106   54  120 1    
   107   55   56 1    
   108   55   57 1    
   109   55  121 1    
   110   56  122 1    
   111   56  123 1    
   112   56  124 1    
   113   57   58 2    
   114   57   59 am   BACKBONE|DICT|INTERRES
   115   59   60 1    
   116   59  125 1    
   117   60   61 1    
   118   60   62 1    
   119   60  126 1    
   120   61  127 1    
   121   61  128 1    
   122   61  129 1    
   123   62   63 2    
   124   62   64 am   BACKBONE|DICT|INTERRES
   125   64   65 1    
   126   64  130 1    
   127   65   66 1    
   128   65   69 1    
   129   65  131 1    
   130   66   67 am   BACKBONE|DICT|INTERRES
   131   66   68 2    
   132   67  132 1    
   133   67  133 1    
   134   69   70 1    
   135   69  134 1    
   136   69  135 1    
   137   70   71 1    
   138   71  136 1    
   139   71  137 1    
@<TRIPOS>SUBSTRUCTURE
     1 UNK         1 GROUP             0       ****    0 ROOT    
