@<TRIPOS>MOLECULE
3R136
137   139    1
SMALL
USER_CHARGES


@<TRIPOS>ATOM
      1 CA         32.3843   19.2476    0.3276 C.3       0 UNK        -0.1979 
      2 C          31.7904   20.5756    0.7739 C.2       0 UNK         0.4864 
      3 O          31.9795   20.9748    1.9238 O.2       0 UNK        -0.5359 
      4 N          31.0774   21.2612   -0.1251 N.am      1 UNK        -0.4318 
      5 CA         30.4598   22.5669    0.0931 C.3       1 UNK         0.0824 
      6 C6         29.1553   22.4773    0.9344 C.3       12 UNK        -0.0944 
      7 S7         28.7859   24.0348    1.8140 S.3       12 UNK        -0.2672 
      8 C8         29.0416   23.5258    3.5390 C.3       12 UNK         0.0333 
      9 C9         28.8146   24.6849    4.4967 C.ar      12 UNK        -0.0807 
     10 C10        29.9021   25.3318    5.0919 C.ar      12 UNK        -0.0894 
     11 C11        29.7005   26.3812    5.9972 C.ar      12 UNK        -0.0804 
     12 C12        28.3915   26.7774    6.2951 C.ar      12 UNK        -0.0824 
     13 C13        27.2930   26.1330    5.7155 C.ar      12 UNK        -0.0762 
     14 C14        27.5136   25.0868    4.8146 C.ar      12 UNK        -0.0782 
     15 C15        25.8751   26.5282    6.1222 C.3       12 UNK         0.0230 
     16 S16        24.7774   26.9064    4.7146 S.3       12 UNK        -0.2608 
     17 C17        25.6113   28.3411    3.9598 C.3       12 UNK        -0.0989 
     18 CA         26.1259   28.0312    2.5275 C.3       5 UNK         0.0716 
     19 N          25.0359   27.8348    1.5701 N.am      5 UNK        -0.4135 
     20 C          24.6516   26.6629    1.0508 C.2       4 UNK         0.5031 
     21 O          25.1103   25.5703    1.3859 O.2       4 UNK        -0.5229 
     22 CA         23.5975   26.7110   -0.0760 C.3       4 UNK         0.0329 
     23 CB         22.8536   28.0620   -0.1948 C.3       4 UNK        -0.2001 
     24 N          24.1840   26.3357   -1.3698 N.am      4 UNK        -0.4303 
     25 C          25.2626   26.8898   -1.9426 C.2       3 UNK         0.5044 
     26 O          25.8795   27.8488   -1.4716 O.2       3 UNK        -0.5152 
     27 CA         25.7389   26.2758   -3.2701 C.3       3 UNK         0.0319 
     28 CB         25.3683   27.1885   -4.4499 C.3       3 UNK        -0.2001 
     29 N          27.1899   26.0768   -3.2483 N.am      3 UNK        -0.4354 
     30 C          27.8087   25.1858   -2.4621 C.2       2 UNK         0.4964 
     31 O          27.2037   24.3358   -1.8036 O.2       2 UNK        -0.5047 
     32 CA         29.3471   25.2693   -2.3936 C.3       2 UNK         0.0288 
     33 CB         29.8429   26.7203   -2.2381 C.3       2 UNK        -0.2113 
     34 N          29.8297   24.4988   -1.2490 N.am      2 UNK        -0.4145 
     35 C          30.2227   23.2224   -1.2802 C.2       1 UNK         0.5006 
     36 O          30.3789   22.5680   -2.3170 O.2       1 UNK        -0.5103 
     37 C          27.0888   29.1162    2.0011 C.2       5 UNK         0.5055 
     38 O          27.7077   29.8143    2.8047 O.2       5 UNK        -0.5220 
     39 N          27.2493   29.2436    0.6708 N.am      6 UNK        -0.4450 
     40 CA         28.1812   30.1970    0.0426 C.3       6 UNK         0.0367 
     41 CB         27.9676   30.2143   -1.4793 C.3       6 UNK        -0.1929 
     42 C          29.6643   29.9418    0.3814 C.2       6 UNK         0.5070 
     43 O          30.4857   30.8477    0.2386 O.2       6 UNK        -0.5237 
     44 N          29.9718   28.7326    0.8720 N.am      7 UNK        -0.4739 
     45 CA         31.2654   28.3423    1.4303 C.3       7 UNK         0.0276 
     46 CB         31.2765   26.8232    1.6606 C.3       7 UNK        -0.1927 
     47 C          31.6330   29.0764    2.7329 C.2       7 UNK         0.5013 
     48 O          32.8071   29.0541    3.0974 O.2       7 UNK        -0.5193 
     49 N          30.6690   29.7334    3.4019 N.am      8 UNK        -0.4253 
     50 CA         30.8523   30.4633    4.6653 C.3       8 UNK         0.0242 
     51 CB         29.5097   31.0544    5.1211 C.3       8 UNK        -0.2000 
     52 C          31.9459   31.5486    4.6522 C.2       8 UNK         0.4948 
     53 O          32.4859   31.8636    5.7124 O.2       8 UNK        -0.5275 
     54 N          32.2802   32.0736    3.4651 N.am      9 UNK        -0.4246 
     55 CA         33.4161   32.9711    3.2441 C.3       9 UNK         0.0261 
     56 CB         33.2751   33.6229    1.8589 C.3       9 UNK        -0.1959 
     57 C          34.7872   32.2749    3.3727 C.2       9 UNK         0.5033 
     58 O          35.7703   32.9539    3.6732 O.2       9 UNK        -0.5390 
     59 N          34.8400   30.9569    3.1331 N.am      10 UNK        -0.4215 
     60 CA         36.0444   30.1290    3.2201 C.3       10 UNK         0.0240 
     61 CB         36.0741   29.1548    2.0300 C.3       10 UNK        -0.1982 
     62 C          36.1258   29.3546    4.5464 C.2       10 UNK         0.4970 
     63 O          37.2379   29.0345    4.9690 O.2       10 UNK        -0.4916 
     64 N          34.9757   29.0601    5.1732 N.am      11 UNK        -0.4279 
     65 CA         34.8651   28.4055    6.4889 C.3       11 UNK         0.1003 
     66 C          35.6388   29.1503    7.6147 C.2       11 UNK         0.5709 
     67 N          36.2510   28.4178    8.5356 N.am      11 UNK        -0.7358 
     68 O          35.6503   30.3780    7.6859 O.2       11 UNK        -0.4999 
     69 C69        33.3864   28.2122    6.9165 C.3       12 UNK        -0.0954 
     70 S70        32.4312   27.1312    5.8035 S.3       12 UNK        -0.2268 
     71 C71        30.8599   27.0580    6.7300 C.3       12 UNK         0.0203 
     72 H72        32.0075   18.4391    0.9535 H         1 UNK         0.0888 
     73 H73        32.1359   19.0180   -0.7085 H         1 UNK         0.0888 
     74 H74        33.4699   19.2724    0.4187 H         1 UNK         0.0888 
     75 H75        30.9847   20.9293   -1.0784 H         1 UNK         0.3017 
     76 H76        31.1912   23.1840    0.6207 H         1 UNK         0.0873 
     77 H77        28.2982   22.2090    0.3130 H         1 UNK         0.0745 
     78 H78        29.2343   21.6785    1.6731 H         1 UNK         0.0745 
     79 H79        28.3571   22.7118    3.7824 H         1 UNK         0.0705 
     80 H80        30.0514   23.1266    3.6494 H         1 UNK         0.0705 
     81 H81        30.9049   25.0004    4.8616 H         1 UNK         0.1334 
     82 H82        28.2265   27.5729    7.0093 H         1 UNK         0.1417 
     83 H83        26.6706   24.5796    4.3639 H         1 UNK         0.1562 
     84 H84        25.8883   27.3893    6.7923 H         1 UNK         0.0748 
     85 H85        25.4373   25.7075    6.6918 H         1 UNK         0.0748 
     86 H86        26.4299   28.6417    4.6165 H         1 UNK         0.0940 
     87 H87        24.9175   29.1833    3.9445 H         1 UNK         0.0940 
     88 H88        26.7339   27.1250    2.5799 H         1 UNK         0.0703 
     89 H89        24.6099   28.6767    1.2099 H         1 UNK         0.3081 
     90 H90        22.8571   25.9473    0.1672 H         1 UNK         0.0719 
     91 H91        23.5109   28.8766   -0.5014 H         1 UNK         0.0809 
     92 H92        22.0529   27.9984   -0.9319 H         1 UNK         0.0809 
     93 H93        22.3892   28.3423    0.7518 H         1 UNK         0.0809 
     94 H94        23.7693   25.5299   -1.8169 H         1 UNK         0.2990 
     95 H95        25.2577   25.3061   -3.4147 H         1 UNK         0.0690 
     96 H96        25.6828   26.7572   -5.4005 H         1 UNK         0.0788 
     97 H97        25.8281   28.1737   -4.3582 H         1 UNK         0.0788 
     98 H98        24.2889   27.3371   -4.5030 H         1 UNK         0.0788 
     99 H99        27.7457   26.7605   -3.7402 H         1 UNK         0.2993 
    100 H100       29.7492   24.8549   -3.3207 H         1 UNK         0.0949 
    101 H101       30.9203   26.7559   -2.0744 H         1 UNK         0.0767 
    102 H102       29.6397   27.3139   -3.1298 H         1 UNK         0.0767 
    103 H103       29.3630   27.2149   -1.3941 H         1 UNK         0.0767 
    104 H104       29.6289   24.8911   -0.3392 H         1 UNK         0.3013 
    105 H105       26.7213   28.6478    0.0343 H         1 UNK         0.3121 
    106 H106       27.9381   31.1903    0.4257 H         1 UNK         0.0774 
    107 H107       28.1757   29.2442   -1.9296 H         1 UNK         0.0815 
    108 H108       28.6225   30.9432   -1.9585 H         1 UNK         0.0815 
    109 H109       26.9426   30.4856   -1.7322 H         1 UNK         0.0815 
    110 H110       29.2232   28.0618    0.9581 H         1 UNK         0.2987 
    111 H111       32.0364   28.5863    0.6963 H         1 UNK         0.0949 
    112 H112       30.5048   26.5193    2.3689 H         1 UNK         0.0806 
    113 H113       31.1208   26.2781    0.7305 H         1 UNK         0.0806 
    114 H114       32.2344   26.4961    2.0682 H         1 UNK         0.0806 
    115 H115       29.7209   29.7070    3.0389 H         1 UNK         0.3010 
    116 H116       31.1583   29.7301    5.4090 H         1 UNK         0.0829 
    117 H117       28.7708   30.2706    5.2900 H         1 UNK         0.0813 
    118 H118       29.6176   31.6013    6.0589 H         1 UNK         0.0813 
    119 H119       29.1032   31.7459    4.3822 H         1 UNK         0.0813 
    120 H120       31.7732   31.7654    2.6465 H         1 UNK         0.3038 
    121 H121       33.3776   33.7600    3.9985 H         1 UNK         0.0769 
    122 H122       33.2831   32.8800    1.0601 H         1 UNK         0.0811 
    123 H123       34.0955   34.3163    1.6682 H         1 UNK         0.0811 
    124 H124       32.3480   34.1910    1.7798 H         1 UNK         0.0811 
    125 H125       33.9760   30.4509    2.9493 H         1 UNK         0.3204 
    126 H126       36.9324   30.7614    3.1555 H         1 UNK         0.0748 
    127 H127       36.9813   28.5493    2.0449 H         1 UNK         0.0771 
    128 H128       35.2256   28.4697    2.0438 H         1 UNK         0.0771 
    129 H129       36.0575   29.6897    1.0803 H         1 UNK         0.0771 
    130 H130       34.1017   29.2796    4.7125 H         1 UNK         0.2980 
    131 H131       35.3155   27.4173    6.3777 H         1 UNK         0.0545 
    132 H132       36.7440   28.8824    9.2821 H         1 UNK         0.3459 
    133 H133       36.2372   27.4105    8.4957 H         1 UNK         0.3459 
    134 H134       33.3366   27.7708    7.9140 H         1 UNK         0.0616 
    135 H135       32.8840   29.1788    6.9854 H         1 UNK         0.0616 
    136 H136       31.0333   26.5248    7.6655 H         1 UNK         0.0634 
    137 H137       30.5741   28.0748    7.0030 H         1 UNK         0.0634 
@<TRIPOS>BOND
     1    1    2 1    
     2    1   72 1    
     3    1   73 1    
     4    1   74 1    
     5    2    3 2    
     6    2    4 am   BACKBONE|DICT|INTERRES
     7    4    5 1    
     8    4   75 1    
     9    5    6 1    
    10    5   35 1    
    11    5   76 1    
    12    6    7 1    
    13    6   77 1    
    14    6   78 1    
    15    7    8 1    
    16    8    9 1    
    17    8   79 1    
    18    8   80 1    
    19    9   10 ar   
    20    9   14 ar   
    21   10   11 ar   
    22   10   81 1    
    23   11   12 ar   
    24   11   71 1    
    25   12   13 ar   
    26   12   82 1    
    27   13   14 ar   
    28   13   15 1    
    29   14   83 1    
    30   15   16 1    
    31   15   84 1    
    32   15   85 1    
    33   16   17 1    
    34   17   18 1    
    35   17   86 1    
    36   17   87 1    
    37   18   19 1    
    38   18   37 1    
    39   18   88 1    
    40   19   20 am   BACKBONE|DICT|INTERRES
    41   19   89 1    
    42   20   21 2    
    43   20   22 1    
    44   22   23 1    
    45   22   24 1    
    46   22   90 1    
    47   23   91 1    
    48   23   92 1    
    49   23   93 1    
    50   24   25 am   BACKBONE|DICT|INTERRES
    51   24   94 1    
    52   25   26 2    
    53   25   27 1    
    54   27   28 1    
    55   27   29 1    
    56   27   95 1    
    57   28   96 1    
    58   28   97 1    
    59   28   98 1    
    60   29   30 am   BACKBONE|DICT|INTERRES
    61   29   99 1    
    62   30   31 2    
    63   30   32 1    
    64   32   33 1    
    65   32   34 1    
    66   32  100 1    
    67   33  101 1    
    68   33  102 1    
    69   33  103 1    
    70   34   35 am   BACKBONE|DICT|INTERRES
    71   34  104 1    
    72   35   36 2    
    73   37   38 2    
    74   37   39 am   BACKBONE|DICT|INTERRES
    75   39   40 1    
    76   39  105 1    
    77   40   41 1    
    78   40   42 1    
    79   40  106 1    
    80   41  107 1    
    81   41  108 1    
    82   41  109 1    
    83   42   43 2    
    84   42   44 am   BACKBONE|DICT|INTERRES
    85   44   45 1    
    86   44  110 1    
    87   45   46 1    
    88   45   47 1    
    89   45  111 1    
    90   46  112 1    
    91   46  113 1    
    92   46  114 1    
    93   47   48 2    
    94   47   49 am   BACKBONE|DICT|INTERRES
    95   49   50 1    
    96   49  115 1    
    97   50   51 1    
    98   50   52 1    
    99   50  116 1    
   100   51  117 1    
   101   51  118 1    
   102   51  119 1    
   103   52   53 2    
   104   52   54 am   BACKBONE|DICT|INTERRES
   105   54   55 1    
   106   54  120 1    
   107   55   56 1    
   108   55   57 1    
   109   55  121 1    
   110   56  122 1    
   111   56  123 1    
   112   56  124 1    
   113   57   58 2    
   114   57   59 am   BACKBONE|DICT|INTERRES
   115   59   60 1    
   116   59  125 1    
   117   60   61 1    
   118   60   62 1    
   119   60  126 1    
   120   61  127 1    
   121   61  128 1    
   122   61  129 1    
   123   62   63 2    
   124   62   64 am   BACKBONE|DICT|INTERRES
   125   64   65 1    
   126   64  130 1    
   127   65   66 1    
   128   65   69 1    
   129   65  131 1    
   130   66   67 am   BACKBONE|DICT|INTERRES
   131   66   68 2    
   132   67  132 1    
   133   67  133 1    
   134   69   70 1    
   135   69  134 1    
   136   69  135 1    
   137   70   71 1    
   138   71  136 1    
   139   71  137 1    
@<TRIPOS>SUBSTRUCTURE
     1 UNK         1 GROUP             0       ****    0 ROOT    
