@<TRIPOS>MOLECULE
3R136
137   139    1
SMALL
USER_CHARGES


@<TRIPOS>ATOM
      1 CA         29.9404   23.3921   -4.7366 C.3       0 UNK        -0.1979 
      2 C          29.7086   24.1815   -3.4575 C.2       0 UNK         0.4864 
      3 O          28.7238   24.9163   -3.3627 O.2       0 UNK        -0.5359 
      4 N          30.5961   24.0219   -2.4633 N.am      1 UNK        -0.4318 
      5 CA         30.5554   24.7160   -1.1672 C.3       1 UNK         0.0824 
      6 C6         31.8186   24.4371   -0.3152 C.3       12 UNK        -0.0944 
      7 S7         31.9979   22.6917    0.1968 S.3       12 UNK        -0.2672 
      8 C8         32.7478   22.8575    1.8525 C.3       12 UNK         0.0333 
      9 C9         31.8838   23.6066    2.8659 C.ar      12 UNK        -0.0807 
     10 C10        32.4507   24.6313    3.6323 C.ar      12 UNK        -0.0894 
     11 C11        31.6989   25.2879    4.6110 C.ar      12 UNK        -0.0804 
     12 C12        30.3687   24.9217    4.8175 C.ar      12 UNK        -0.0824 
     13 C13        29.7785   23.9229    4.0410 C.ar      12 UNK        -0.0762 
     14 C14        30.5423   23.2608    3.0725 C.ar      12 UNK        -0.0782 
     15 C15        28.3194   23.5562    4.2626 C.3       12 UNK         0.0230 
     16 S16        27.2029   24.6040    3.2781 S.3       12 UNK        -0.2608 
     17 C17        27.1657   26.1747    4.2035 C.3       12 UNK        -0.0989 
     18 CA         27.9419   27.3328    3.5177 C.3       5 UNK         0.0716 
     19 N          27.5054   27.5393    2.1280 N.am      5 UNK        -0.4135 
     20 C          27.8419   28.5423    1.3013 C.2       4 UNK         0.5031 
     21 O          28.5393   29.5058    1.6304 O.2       4 UNK        -0.5229 
     22 CA         27.3471   28.4744   -0.1540 C.3       4 UNK         0.0329 
     23 CB         28.4891   28.7749   -1.1424 C.3       4 UNK        -0.2001 
     24 N          26.7676   27.1791   -0.5186 N.am      4 UNK        -0.4303 
     25 C          25.6022   27.0168   -1.1622 C.2       3 UNK         0.5044 
     26 O          24.8006   27.9327   -1.3525 O.2       3 UNK        -0.5152 
     27 CA         25.2725   25.6233   -1.7349 C.3       3 UNK         0.0319 
     28 CB         25.1844   25.6816   -3.2699 C.3       3 UNK        -0.2001 
     29 N          26.2599   24.6063   -1.3700 N.am      3 UNK        -0.4354 
     30 C          26.1676   23.8101   -0.2956 C.2       2 UNK         0.4964 
     31 O          25.1930   23.7950    0.4564 O.2       2 UNK        -0.5047 
     32 CA         27.3557   22.8723    0.0021 C.3       2 UNK         0.0288 
     33 CB         27.0437   21.4459   -0.4786 C.3       2 UNK        -0.2113 
     34 N          28.6352   23.2950   -0.5739 N.am      2 UNK        -0.4145 
     35 C          29.2570   24.4675   -0.3699 C.2       1 UNK         0.5006 
     36 O          28.8195   25.3597    0.3539 O.2       1 UNK        -0.5103 
     37 C          27.8073   28.6101    4.3710 C.2       5 UNK         0.5055 
     38 O          26.6800   29.0369    4.6290 O.2       5 UNK        -0.5220 
     39 N          28.9413   29.2173    4.7522 N.am      6 UNK        -0.4450 
     40 CA         29.1003   30.4592    5.5263 C.3       6 UNK         0.0367 
     41 CB         28.4411   30.3503    6.9154 C.3       6 UNK        -0.1929 
     42 C          28.6619   31.7468    4.7987 C.2       6 UNK         0.5070 
     43 O          29.1827   32.8152    5.1199 O.2       6 UNK        -0.5237 
     44 N          27.7390   31.6412    3.8342 N.am      7 UNK        -0.4739 
     45 CA         27.2642   32.7297    2.9783 C.3       7 UNK         0.0276 
     46 CB         26.0342   32.2540    2.1886 C.3       7 UNK        -0.1927 
     47 C          28.3514   33.2498    2.0242 C.2       7 UNK         0.5013 
     48 O          28.4238   34.4581    1.7950 O.2       7 UNK        -0.5193 
     49 N          29.1821   32.3358    1.5079 N.am      8 UNK        -0.4253 
     50 CA         30.3522   32.6490    0.6864 C.3       8 UNK         0.0242 
     51 CB         29.9577   32.7945   -0.7942 C.3       8 UNK        -0.2000 
     52 C          31.4904   31.6364    0.8766 C.2       8 UNK         0.4948 
     53 O          32.6524   32.0329    0.7746 O.2       8 UNK        -0.5275 
     54 N          31.1708   30.3663    1.1672 N.am      9 UNK        -0.4246 
     55 CA         32.1535   29.3457    1.5233 C.3       9 UNK         0.0261 
     56 CB         31.6033   27.9467    1.1965 C.3       9 UNK        -0.1959 
     57 C          32.4841   29.4745    3.0145 C.2       9 UNK         0.5033 
     58 O          31.6513   29.1101    3.8476 O.2       9 UNK        -0.5390 
     59 N          33.6746   30.0021    3.3175 N.am      10 UNK        -0.4215 
     60 CA         34.2296   30.0840    4.6677 C.3       10 UNK         0.0240 
     61 CB         35.0667   31.3674    4.7929 C.3       10 UNK        -0.1982 
     62 C          35.0953   28.8458    4.9410 C.2       10 UNK         0.4970 
     63 O          35.7748   28.3653    4.0303 O.2       10 UNK        -0.4916 
     64 N          35.0562   28.3591    6.1840 N.am      11 UNK        -0.4279 
     65 CA         35.7339   27.1303    6.6298 C.3       11 UNK         0.1003 
     66 C          36.1712   27.1657    8.1233 C.2       11 UNK         0.5709 
     67 N          36.1527   28.3132    8.7931 N.am      11 UNK        -0.7358 
     68 O          36.5608   26.1437    8.6836 O.2       11 UNK        -0.4999 
     69 C69        34.9499   25.8452    6.2279 C.3       12 UNK        -0.0954 
     70 S70        33.2383   25.7985    6.8678 S.3       12 UNK        -0.2268 
     71 C71        32.3034   26.4130    5.4327 C.3       12 UNK         0.0203 
     72 H72        30.0499   24.0723   -5.5808 H         1 UNK         0.0888 
     73 H73        30.8372   22.7754   -4.6789 H         1 UNK         0.0888 
     74 H74        29.0907   22.7390   -4.9331 H         1 UNK         0.0888 
     75 H75        31.3749   23.3903   -2.5897 H         1 UNK         0.3017 
     76 H76        30.5586   25.7828   -1.4003 H         1 UNK         0.0873 
     77 H77        32.7132   24.7248   -0.8694 H         1 UNK         0.0745 
     78 H78        31.8066   25.0729    0.5700 H         1 UNK         0.0745 
     79 H79        33.7187   23.3426    1.7398 H         1 UNK         0.0705 
     80 H80        32.9494   21.8593    2.2427 H         1 UNK         0.0705 
     81 H81        33.4828   24.9122    3.4764 H         1 UNK         0.1334 
     82 H82        29.7891   25.4259    5.5776 H         1 UNK         0.1417 
     83 H83        30.0937   22.4761    2.4787 H         1 UNK         0.1562 
     84 H84        28.0610   23.6263    5.3203 H         1 UNK         0.0748 
     85 H85        28.1547   22.5150    3.9813 H         1 UNK         0.0748 
     86 H86        27.5360   26.0071    5.2159 H         1 UNK         0.0940 
     87 H87        26.1135   26.4434    4.3197 H         1 UNK         0.0940 
     88 H88        28.9970   27.0576    3.4720 H         1 UNK         0.0703 
     89 H89        26.9560   26.7842    1.7456 H         1 UNK         0.3081 
     90 H90        26.6009   29.2658   -0.2457 H         1 UNK         0.0719 
     91 H91        29.2583   28.0033   -1.1094 H         1 UNK         0.0809 
     92 H92        28.1200   28.8339   -2.1664 H         1 UNK         0.0809 
     93 H93        28.9721   29.7244   -0.9205 H         1 UNK         0.0809 
     94 H94        27.3677   26.3733   -0.3588 H         1 UNK         0.2990 
     95 H95        24.2894   25.3403   -1.3531 H         1 UNK         0.0690 
     96 H96        24.9158   24.7117   -3.6888 H         1 UNK         0.0788 
     97 H97        26.1314   25.9888   -3.7161 H         1 UNK         0.0788 
     98 H98        24.4245   26.3941   -3.5939 H         1 UNK         0.0788 
     99 H99        27.0944   24.5644   -1.9457 H         1 UNK         0.2993 
    100 H100       27.4847   22.8417    1.0839 H         1 UNK         0.0949 
    101 H101       26.9362   21.4006   -1.5632 H         1 UNK         0.0767 
    102 H102       27.8288   20.7476   -0.1874 H         1 UNK         0.0767 
    103 H103       26.1121   21.0818   -0.0427 H         1 UNK         0.0767 
    104 H104       29.0853   22.6378   -1.1938 H         1 UNK         0.3013 
    105 H105       29.8259   28.8630    4.3911 H         1 UNK         0.3121 
    106 H106       30.1753   30.5585    5.6854 H         1 UNK         0.0774 
    107 H107       28.6780   31.2230    7.5252 H         1 UNK         0.0815 
    108 H108       27.3545   30.2905    6.8498 H         1 UNK         0.0815 
    109 H109       28.7955   29.4723    7.4552 H         1 UNK         0.0815 
    110 H110       27.3384   30.7231    3.6791 H         1 UNK         0.2987 
    111 H111       26.9634   33.5584    3.6229 H         1 UNK         0.0949 
    112 H112       25.6421   33.0537    1.5587 H         1 UNK         0.0806 
    113 H113       26.2725   31.4124    1.5371 H         1 UNK         0.0806 
    114 H114       25.2300   31.9438    2.8561 H         1 UNK         0.0806 
    115 H115       29.0185   31.3606    1.7422 H         1 UNK         0.3010 
    116 H116       30.7549   33.6086    1.0194 H         1 UNK         0.0829 
    117 H117       29.2661   33.6248   -0.9380 H         1 UNK         0.0813 
    118 H118       30.8328   32.9936   -1.4143 H         1 UNK         0.0813 
    119 H119       29.4810   31.8958   -1.1805 H         1 UNK         0.0813 
    120 H120       30.1970   30.0910    1.2712 H         1 UNK         0.3038 
    121 H121       33.0630   29.4880    0.9352 H         1 UNK         0.0769 
    122 H122       30.6846   27.7258    1.7397 H         1 UNK         0.0811 
    123 H123       32.3286   27.1802    1.4709 H         1 UNK         0.0811 
    124 H124       31.3992   27.8383    0.1319 H         1 UNK         0.0811 
    125 H125       34.2977   30.2569    2.5640 H         1 UNK         0.3204 
    126 H126       33.4180   30.1260    5.3979 H         1 UNK         0.0748 
    127 H127       35.4767   31.4710    5.7984 H         1 UNK         0.0771 
    128 H128       35.9060   31.3741    4.0959 H         1 UNK         0.0771 
    129 H129       34.4624   32.2536    4.5972 H         1 UNK         0.0771 
    130 H130       34.4654   28.7996    6.8742 H         1 UNK         0.2980 
    131 H131       36.6886   27.0858    6.1026 H         1 UNK         0.0545 
    132 H132       36.4465   28.3163    9.7574 H         1 UNK         0.3459 
    133 H133       35.9095   29.1804    8.3437 H         1 UNK         0.3459 
    134 H134       35.4693   24.9510    6.5762 H         1 UNK         0.0616 
    135 H135       34.9307   25.7546    5.1418 H         1 UNK         0.0616 
    136 H136       32.9441   27.0168    4.7936 H         1 UNK         0.0634 
    137 H137       31.5193   27.0826    5.7896 H         1 UNK         0.0634 
@<TRIPOS>BOND
     1    1    2 1    
     2    1   72 1    
     3    1   73 1    
     4    1   74 1    
     5    2    3 2    
     6    2    4 am   BACKBONE|DICT|INTERRES
     7    4    5 1    
     8    4   75 1    
     9    5    6 1    
    10    5   35 1    
    11    5   76 1    
    12    6    7 1    
    13    6   77 1    
    14    6   78 1    
    15    7    8 1    
    16    8    9 1    
    17    8   79 1    
    18    8   80 1    
    19    9   10 ar   
    20    9   14 ar   
    21   10   11 ar   
    22   10   81 1    
    23   11   12 ar   
    24   11   71 1    
    25   12   13 ar   
    26   12   82 1    
    27   13   14 ar   
    28   13   15 1    
    29   14   83 1    
    30   15   16 1    
    31   15   84 1    
    32   15   85 1    
    33   16   17 1    
    34   17   18 1    
    35   17   86 1    
    36   17   87 1    
    37   18   19 1    
    38   18   37 1    
    39   18   88 1    
    40   19   20 am   BACKBONE|DICT|INTERRES
    41   19   89 1    
    42   20   21 2    
    43   20   22 1    
    44   22   23 1    
    45   22   24 1    
    46   22   90 1    
    47   23   91 1    
    48   23   92 1    
    49   23   93 1    
    50   24   25 am   BACKBONE|DICT|INTERRES
    51   24   94 1    
    52   25   26 2    
    53   25   27 1    
    54   27   28 1    
    55   27   29 1    
    56   27   95 1    
    57   28   96 1    
    58   28   97 1    
    59   28   98 1    
    60   29   30 am   BACKBONE|DICT|INTERRES
    61   29   99 1    
    62   30   31 2    
    63   30   32 1    
    64   32   33 1    
    65   32   34 1    
    66   32  100 1    
    67   33  101 1    
    68   33  102 1    
    69   33  103 1    
    70   34   35 am   BACKBONE|DICT|INTERRES
    71   34  104 1    
    72   35   36 2    
    73   37   38 2    
    74   37   39 am   BACKBONE|DICT|INTERRES
    75   39   40 1    
    76   39  105 1    
    77   40   41 1    
    78   40   42 1    
    79   40  106 1    
    80   41  107 1    
    81   41  108 1    
    82   41  109 1    
    83   42   43 2    
    84   42   44 am   BACKBONE|DICT|INTERRES
    85   44   45 1    
    86   44  110 1    
    87   45   46 1    
    88   45   47 1    
    89   45  111 1    
    90   46  112 1    
    91   46  113 1    
    92   46  114 1    
    93   47   48 2    
    94   47   49 am   BACKBONE|DICT|INTERRES
    95   49   50 1    
    96   49  115 1    
    97   50   51 1    
    98   50   52 1    
    99   50  116 1    
   100   51  117 1    
   101   51  118 1    
   102   51  119 1    
   103   52   53 2    
   104   52   54 am   BACKBONE|DICT|INTERRES
   105   54   55 1    
   106   54  120 1    
   107   55   56 1    
   108   55   57 1    
   109   55  121 1    
   110   56  122 1    
   111   56  123 1    
   112   56  124 1    
   113   57   58 2    
   114   57   59 am   BACKBONE|DICT|INTERRES
   115   59   60 1    
   116   59  125 1    
   117   60   61 1    
   118   60   62 1    
   119   60  126 1    
   120   61  127 1    
   121   61  128 1    
   122   61  129 1    
   123   62   63 2    
   124   62   64 am   BACKBONE|DICT|INTERRES
   125   64   65 1    
   126   64  130 1    
   127   65   66 1    
   128   65   69 1    
   129   65  131 1    
   130   66   67 am   BACKBONE|DICT|INTERRES
   131   66   68 2    
   132   67  132 1    
   133   67  133 1    
   134   69   70 1    
   135   69  134 1    
   136   69  135 1    
   137   70   71 1    
   138   71  136 1    
   139   71  137 1    
@<TRIPOS>SUBSTRUCTURE
     1 UNK         1 GROUP             0       ****    0 ROOT    
