@<TRIPOS>MOLECULE
3R136
137   139    1
SMALL
USER_CHARGES


@<TRIPOS>ATOM
      1 CA         24.5654   22.4295   -0.9372 C.3       0 UNK        -0.1979 
      2 C          25.9691   22.4179   -0.3510 C.2       0 UNK         0.4864 
      3 O          26.1213   22.2444    0.8594 O.2       0 UNK        -0.5359 
      4 N          26.9863   22.6150   -1.2038 N.am      1 UNK        -0.4318 
      5 CA         28.4218   22.6447   -0.8923 C.3       1 UNK         0.0824 
      6 C6         29.0169   21.2293   -0.6454 C.3       12 UNK        -0.0944 
      7 S7         30.7384   21.0997   -1.2373 S.3       12 UNK        -0.2672 
      8 C8         31.7117   20.9802    0.3051 C.3       12 UNK         0.0333 
      9 C9         32.2095   22.3069    0.8855 C.ar      12 UNK        -0.0807 
     10 C10        32.5311   22.3580    2.2464 C.ar      12 UNK        -0.0894 
     11 C11        33.0595   23.5205    2.8132 C.ar      12 UNK        -0.0804 
     12 C12        33.2727   24.6409    2.0097 C.ar      12 UNK        -0.0824 
     13 C13        32.9335   24.6246    0.6538 C.ar      12 UNK        -0.0762 
     14 C14        32.4149   23.4493    0.0964 C.ar      12 UNK        -0.0782 
     15 C15        33.1312   25.8653   -0.2195 C.3       12 UNK         0.0230 
     16 S16        32.7151   27.4395    0.6193 S.3       12 UNK        -0.2608 
     17 C17        31.0004   27.1177    1.1439 C.3       12 UNK        -0.0989 
     18 CA         30.0117   28.2271    0.7047 C.3       5 UNK         0.0716 
     19 N          28.7360   27.6626    0.2517 N.am      5 UNK        -0.4135 
     20 C          27.6809   28.3509   -0.2075 C.2       4 UNK         0.5031 
     21 O          27.6602   29.5746   -0.3323 O.2       4 UNK        -0.5229 
     22 CA         26.4209   27.5352   -0.5357 C.3       4 UNK         0.0329 
     23 CB         26.5302   26.8768   -1.9208 C.3       4 UNK        -0.2001 
     24 N          26.1800   26.5133    0.4845 N.am      4 UNK        -0.4303 
     25 C          25.6188   26.7612    1.6769 C.2       3 UNK         0.5044 
     26 O          25.1405   27.8496    1.9959 O.2       3 UNK        -0.5152 
     27 CA         25.6087   25.6107    2.6994 C.3       3 UNK         0.0319 
     28 CB         24.3187   24.7853    2.5769 C.3       3 UNK        -0.2001 
     29 N          26.7716   24.7253    2.5874 N.am      3 UNK        -0.4354 
     30 C          28.0289   25.0953    2.8778 C.2       2 UNK         0.4964 
     31 O          28.3376   26.2204    3.2684 O.2       2 UNK        -0.5047 
     32 CA         29.1365   24.0531    2.6475 C.3       2 UNK         0.0288 
     33 CB         29.2537   23.1344    3.8742 C.3       2 UNK        -0.2113 
     34 N          28.9364   23.2318    1.4511 N.am      2 UNK        -0.4145 
     35 C          28.7280   23.6830    0.2053 C.2       1 UNK         0.5006 
     36 O          28.6992   24.8775   -0.0921 O.2       1 UNK        -0.5103 
     37 C          29.8271   29.2792    1.8161 C.2       5 UNK         0.5055 
     38 O          30.4352   30.3464    1.7480 O.2       5 UNK        -0.5220 
     39 N          28.9382   28.9881    2.7768 N.am      6 UNK        -0.4450 
     40 CA         28.5413   29.8652    3.8823 C.3       6 UNK         0.0367 
     41 CB         27.5822   29.0949    4.8046 C.3       6 UNK        -0.1929 
     42 C          27.9175   31.2148    3.4680 C.2       6 UNK         0.5070 
     43 O          27.8548   32.1179    4.3024 O.2       6 UNK        -0.5237 
     44 N          27.4606   31.3480    2.2139 N.am      7 UNK        -0.4739 
     45 CA         26.9781   32.6155    1.6584 C.3       7 UNK         0.0276 
     46 CB         25.9323   32.3301    0.5682 C.3       7 UNK        -0.1927 
     47 C          28.1184   33.4861    1.0976 C.2       7 UNK         0.5013 
     48 O          27.9198   34.6919    0.9424 O.2       7 UNK        -0.5193 
     49 N          29.2721   32.8768    0.7889 N.am      8 UNK        -0.4253 
     50 CA         30.4433   33.5400    0.2114 C.3       8 UNK         0.0242 
     51 CB         30.9691   32.6971   -0.9631 C.3       8 UNK        -0.2000 
     52 C          31.5514   33.7522    1.2535 C.2       8 UNK         0.4948 
     53 O          32.1679   34.8186    1.2690 O.2       8 UNK        -0.5275 
     54 N          31.7904   32.7409    2.0944 N.am      9 UNK        -0.4246 
     55 CA         32.8051   32.7152    3.1427 C.3       9 UNK         0.0261 
     56 CB         34.1546   32.2485    2.5530 C.3       9 UNK        -0.1959 
     57 C          32.2721   31.8491    4.2949 C.2       9 UNK         0.5033 
     58 O          31.1570   32.0952    4.7550 O.2       9 UNK        -0.5390 
     59 N          33.0520   30.8604    4.7436 N.am      10 UNK        -0.4215 
     60 CA         32.6972   29.8775    5.7636 C.3       10 UNK         0.0240 
     61 CB         32.7080   30.5199    7.1654 C.3       10 UNK        -0.1982 
     62 C          33.7030   28.7234    5.6892 C.2       10 UNK         0.4970 
     63 O          34.8081   28.9127    5.1724 O.2       10 UNK        -0.4916 
     64 N          33.3112   27.5620    6.2225 N.am      11 UNK        -0.4279 
     65 CA         34.1826   26.3897    6.3883 C.3       11 UNK         0.1003 
     66 C          35.2306   26.5979    7.5155 C.2       11 UNK         0.5709 
     67 N          36.4104   26.0071    7.3827 N.am      11 UNK        -0.7358 
     68 O          34.9718   27.2552    8.5226 O.2       11 UNK        -0.4999 
     69 C69        33.3595   25.0979    6.6317 C.3       12 UNK        -0.0954 
     70 S70        32.3096   24.6858    5.2011 S.3       12 UNK        -0.2268 
     71 C71        33.4257   23.5768    4.2869 C.3       12 UNK         0.0203 
     72 H72        23.9997   21.5724   -0.5726 H         1 UNK         0.0888 
     73 H73        24.0398   23.3365   -0.6411 H         1 UNK         0.0888 
     74 H74        24.5790   22.3845   -2.0260 H         1 UNK         0.0888 
     75 H75        26.7680   22.7788   -2.1770 H         1 UNK         0.3017 
     76 H76        28.8808   23.0427   -1.7992 H         1 UNK         0.0873 
     77 H77        28.4548   20.4990   -1.2300 H         1 UNK         0.0745 
     78 H78        28.9180   20.8863    0.3847 H         1 UNK         0.0745 
     79 H79        32.5884   20.3662    0.0950 H         1 UNK         0.0705 
     80 H80        31.1347   20.4324    1.0516 H         1 UNK         0.0705 
     81 H81        32.3850   21.4830    2.8652 H         1 UNK         0.1334 
     82 H82        33.6886   25.5355    2.4526 H         1 UNK         0.1417 
     83 H83        32.1828   23.4270   -0.9590 H         1 UNK         0.1562 
     84 H84        32.5271   25.7916   -1.1253 H         1 UNK         0.0748 
     85 H85        34.1721   25.9039   -0.5429 H         1 UNK         0.0748 
     86 H86        30.9851   26.9466    2.2228 H         1 UNK         0.0940 
     87 H87        30.7045   26.1657    0.7079 H         1 UNK         0.0940 
     88 H88        30.4223   28.7469   -0.1636 H         1 UNK         0.0703 
     89 H89        28.6727   26.6466    0.2547 H         1 UNK         0.3081 
     90 H90        25.5721   28.2225   -0.5567 H         1 UNK         0.0719 
     91 H91        25.6221   26.3276   -2.1701 H         1 UNK         0.0809 
     92 H92        26.6759   27.6298   -2.6964 H         1 UNK         0.0809 
     93 H93        27.3684   26.1824   -1.9820 H         1 UNK         0.0809 
     94 H94        26.5978   25.6063    0.3268 H         1 UNK         0.2990 
     95 H95        25.6286   26.0599    3.6949 H         1 UNK         0.0690 
     96 H96        23.4381   25.4177    2.6982 H         1 UNK         0.0788 
     97 H97        24.2690   24.0109    3.3426 H         1 UNK         0.0788 
     98 H98        24.2399   24.2998    1.6046 H         1 UNK         0.0788 
     99 H99        26.6067   23.7898    2.2284 H         1 UNK         0.2993 
    100 H100       30.0806   24.5874    2.5271 H         1 UNK         0.0949 
    101 H101       28.3572   22.5291    4.0144 H         1 UNK         0.0767 
    102 H102       30.1047   22.4596    3.7877 H         1 UNK         0.0767 
    103 H103       29.3989   23.7172    4.7849 H         1 UNK         0.0767 
    104 H104       28.8854   22.2358    1.6021 H         1 UNK         0.3013 
    105 H105       28.5368   28.0530    2.7868 H         1 UNK         0.3121 
    106 H106       29.4443   30.0945    4.4496 H         1 UNK         0.0774 
    107 H107       26.6772   28.7906    4.2771 H         1 UNK         0.0815 
    108 H108       27.2765   29.7073    5.6540 H         1 UNK         0.0815 
    109 H109       28.0533   28.1983    5.2077 H         1 UNK         0.0815 
    110 H110       27.5320   30.5677    1.5699 H         1 UNK         0.2987 
    111 H111       26.4857   33.1899    2.4465 H         1 UNK         0.0949 
    112 H112       26.3732   31.8403   -0.3001 H         1 UNK         0.0806 
    113 H113       25.1292   31.6946    0.9418 H         1 UNK         0.0806 
    114 H114       25.4764   33.2569    0.2173 H         1 UNK         0.0806 
    115 H115       29.3724   31.8908    1.0047 H         1 UNK         0.3010 
    116 H116       30.1658   34.5210   -0.1804 H         1 UNK         0.0829 
    117 H117       30.2137   32.5908   -1.7417 H         1 UNK         0.0813 
    118 H118       31.8422   33.1653   -1.4197 H         1 UNK         0.0813 
    119 H119       31.2637   31.6958   -0.6454 H         1 UNK         0.0813 
    120 H120       31.2253   31.8936    2.0236 H         1 UNK         0.3038 
    121 H121       32.9306   33.7220    3.5462 H         1 UNK         0.0769 
    122 H122       34.0900   31.2414    2.1381 H         1 UNK         0.0811 
    123 H123       34.9438   32.2563    3.3058 H         1 UNK         0.0811 
    124 H124       34.4802   32.9116    1.7512 H         1 UNK         0.0811 
    125 H125       33.9545   30.6934    4.3140 H         1 UNK         0.3204 
    126 H126       31.7019   29.4858    5.5426 H         1 UNK         0.0748 
    127 H127       33.6823   30.9499    7.4011 H         1 UNK         0.0771 
    128 H128       31.9641   31.3121    7.2501 H         1 UNK         0.0771 
    129 H129       32.4807   29.7846    7.9383 H         1 UNK         0.0771 
    130 H130       32.3977   27.4938    6.6451 H         1 UNK         0.2980 
    131 H131       34.7351   26.2616    5.4548 H         1 UNK         0.0545 
    132 H132       37.0979   26.1193    8.1114 H         1 UNK         0.3459 
    133 H133       36.6316   25.4573    6.5671 H         1 UNK         0.3459 
    134 H134       34.0131   24.2488    6.8411 H         1 UNK         0.0616 
    135 H135       32.7196   25.2100    7.5087 H         1 UNK         0.0616 
    136 H136       33.3945   22.5847    4.7399 H         1 UNK         0.0634 
    137 H137       34.4540   23.9295    4.3781 H         1 UNK         0.0634 
@<TRIPOS>BOND
     1    1    2 1    
     2    1   72 1    
     3    1   73 1    
     4    1   74 1    
     5    2    3 2    
     6    2    4 am   BACKBONE|DICT|INTERRES
     7    4    5 1    
     8    4   75 1    
     9    5    6 1    
    10    5   35 1    
    11    5   76 1    
    12    6    7 1    
    13    6   77 1    
    14    6   78 1    
    15    7    8 1    
    16    8    9 1    
    17    8   79 1    
    18    8   80 1    
    19    9   10 ar   
    20    9   14 ar   
    21   10   11 ar   
    22   10   81 1    
    23   11   12 ar   
    24   11   71 1    
    25   12   13 ar   
    26   12   82 1    
    27   13   14 ar   
    28   13   15 1    
    29   14   83 1    
    30   15   16 1    
    31   15   84 1    
    32   15   85 1    
    33   16   17 1    
    34   17   18 1    
    35   17   86 1    
    36   17   87 1    
    37   18   19 1    
    38   18   37 1    
    39   18   88 1    
    40   19   20 am   BACKBONE|DICT|INTERRES
    41   19   89 1    
    42   20   21 2    
    43   20   22 1    
    44   22   23 1    
    45   22   24 1    
    46   22   90 1    
    47   23   91 1    
    48   23   92 1    
    49   23   93 1    
    50   24   25 am   BACKBONE|DICT|INTERRES
    51   24   94 1    
    52   25   26 2    
    53   25   27 1    
    54   27   28 1    
    55   27   29 1    
    56   27   95 1    
    57   28   96 1    
    58   28   97 1    
    59   28   98 1    
    60   29   30 am   BACKBONE|DICT|INTERRES
    61   29   99 1    
    62   30   31 2    
    63   30   32 1    
    64   32   33 1    
    65   32   34 1    
    66   32  100 1    
    67   33  101 1    
    68   33  102 1    
    69   33  103 1    
    70   34   35 am   BACKBONE|DICT|INTERRES
    71   34  104 1    
    72   35   36 2    
    73   37   38 2    
    74   37   39 am   BACKBONE|DICT|INTERRES
    75   39   40 1    
    76   39  105 1    
    77   40   41 1    
    78   40   42 1    
    79   40  106 1    
    80   41  107 1    
    81   41  108 1    
    82   41  109 1    
    83   42   43 2    
    84   42   44 am   BACKBONE|DICT|INTERRES
    85   44   45 1    
    86   44  110 1    
    87   45   46 1    
    88   45   47 1    
    89   45  111 1    
    90   46  112 1    
    91   46  113 1    
    92   46  114 1    
    93   47   48 2    
    94   47   49 am   BACKBONE|DICT|INTERRES
    95   49   50 1    
    96   49  115 1    
    97   50   51 1    
    98   50   52 1    
    99   50  116 1    
   100   51  117 1    
   101   51  118 1    
   102   51  119 1    
   103   52   53 2    
   104   52   54 am   BACKBONE|DICT|INTERRES
   105   54   55 1    
   106   54  120 1    
   107   55   56 1    
   108   55   57 1    
   109   55  121 1    
   110   56  122 1    
   111   56  123 1    
   112   56  124 1    
   113   57   58 2    
   114   57   59 am   BACKBONE|DICT|INTERRES
   115   59   60 1    
   116   59  125 1    
   117   60   61 1    
   118   60   62 1    
   119   60  126 1    
   120   61  127 1    
   121   61  128 1    
   122   61  129 1    
   123   62   63 2    
   124   62   64 am   BACKBONE|DICT|INTERRES
   125   64   65 1    
   126   64  130 1    
   127   65   66 1    
   128   65   69 1    
   129   65  131 1    
   130   66   67 am   BACKBONE|DICT|INTERRES
   131   66   68 2    
   132   67  132 1    
   133   67  133 1    
   134   69   70 1    
   135   69  134 1    
   136   69  135 1    
   137   70   71 1    
   138   71  136 1    
   139   71  137 1    
@<TRIPOS>SUBSTRUCTURE
     1 UNK         1 GROUP             0       ****    0 ROOT    
