@<TRIPOS>MOLECULE
3R136
137   139    1
SMALL
USER_CHARGES


@<TRIPOS>ATOM
      1 CA         25.3175   28.0490    4.8801 C.3       0 UNK        -0.1979 
      2 C          25.3770   26.7311    4.1229 C.2       0 UNK         0.4864 
      3 O          24.4153   25.9606    4.1484 O.2       0 UNK        -0.5359 
      4 N          26.5000   26.4649    3.4461 N.am      1 UNK        -0.4318 
      5 CA         26.7503   25.2690    2.6388 C.3       1 UNK         0.0824 
      6 C6         28.2661   25.0615    2.4084 C.3       12 UNK        -0.0944 
      7 S7         29.1752   24.6908    3.9466 S.3       12 UNK        -0.2672 
      8 C8         30.7950   24.1689    3.2901 C.3       12 UNK         0.0333 
      9 C9         31.6513   25.3587    2.8769 C.ar      12 UNK        -0.0807 
     10 C10        32.6691   25.8279    3.7123 C.ar      12 UNK        -0.0894 
     11 C11        33.4521   26.9235    3.3322 C.ar      12 UNK        -0.0804 
     12 C12        33.1859   27.5775    2.1232 C.ar      12 UNK        -0.0824 
     13 C13        32.1726   27.1118    1.2780 C.ar      12 UNK        -0.0762 
     14 C14        31.4331   25.9876    1.6499 C.ar      12 UNK        -0.0782 
     15 C15        31.8619   27.8031   -0.0410 C.3       12 UNK         0.0230 
     16 S16        30.2686   28.6818    0.0489 S.3       12 UNK        -0.2608 
     17 C17        29.9398   29.0448   -1.7129 C.3       12 UNK        -0.0989 
     18 CA         28.6598   28.3618   -2.2683 C.3       5 UNK         0.0716 
     19 N          28.7089   26.9067   -2.0945 N.am      5 UNK        -0.4135 
     20 C          28.0095   26.0097   -2.8009 C.2       4 UNK         0.5031 
     21 O          27.1726   26.3148   -3.6517 O.2       4 UNK        -0.5229 
     22 CA         28.3034   24.5228   -2.5402 C.3       4 UNK         0.0329 
     23 CB         29.4787   24.2629   -1.5743 C.3       4 UNK        -0.2001 
     24 N          27.1041   23.8936   -1.9983 N.am      4 UNK        -0.4303 
     25 C          26.4776   22.8274   -2.5130 C.2       3 UNK         0.5044 
     26 O          26.8442   22.2467   -3.5359 O.2       3 UNK        -0.5152 
     27 CA         25.2480   22.2845   -1.7547 C.3       3 UNK         0.0319 
     28 CB         25.5780   20.9343   -1.0960 C.3       3 UNK        -0.2001 
     29 N          24.7391   23.1951   -0.7258 N.am      3 UNK        -0.4354 
     30 C          24.0406   24.3120   -0.9699 C.2       2 UNK         0.4964 
     31 O          23.6742   24.6578   -2.0929 O.2       2 UNK        -0.5047 
     32 CA         23.7116   25.2091    0.2373 C.3       2 UNK         0.0288 
     33 CB         22.2977   24.9075    0.7590 C.3       2 UNK        -0.2113 
     34 N          24.6617   25.1257    1.3566 N.am      2 UNK        -0.4145 
     35 C          25.9810   25.3609    1.3042 C.2       1 UNK         0.5006 
     36 O          26.5779   25.6614    0.2664 O.2       1 UNK        -0.5103 
     37 C          27.3768   29.0302   -1.7224 C.2       5 UNK         0.5055 
     38 O          27.1493   30.1988   -2.0408 O.2       5 UNK        -0.5220 
     39 N          26.5822   28.3146   -0.9076 N.am      6 UNK        -0.4450 
     40 CA         25.4119   28.8108   -0.1664 C.3       6 UNK         0.0367 
     41 CB         24.2708   29.2294   -1.1170 C.3       6 UNK        -0.1929 
     42 C          25.7817   29.8899    0.8690 C.2       6 UNK         0.5070 
     43 O          25.0185   30.8298    1.0962 O.2       6 UNK        -0.5237 
     44 N          26.9539   29.7167    1.4842 N.am      7 UNK        -0.4739 
     45 CA         27.5428   30.5738    2.5042 C.3       7 UNK         0.0276 
     46 CB         28.2881   31.7413    1.8253 C.3       7 UNK        -0.1927 
     47 C          28.4683   29.7096    3.3736 C.2       7 UNK         0.5013 
     48 O          28.4615   28.4822    3.2444 O.2       7 UNK        -0.5193 
     49 N          29.2386   30.3562    4.2487 N.am      8 UNK        -0.4253 
     50 CA         30.2757   29.7486    5.0732 C.3       8 UNK         0.0242 
     51 CB         29.6634   29.1986    6.3743 C.3       8 UNK        -0.2000 
     52 C          31.3348   30.8208    5.3512 C.2       8 UNK         0.4948 
     53 O          31.0498   32.0142    5.2084 O.2       8 UNK        -0.5275 
     54 N          32.5311   30.3816    5.7454 N.am      9 UNK        -0.4246 
     55 CA         33.6895   31.2149    6.0526 C.3       9 UNK         0.0261 
     56 CB         34.3495   31.7041    4.7452 C.3       9 UNK        -0.1959 
     57 C          34.6611   30.3897    6.9060 C.2       9 UNK         0.5033 
     58 O          34.4014   29.2089    7.1566 O.2       9 UNK        -0.5390 
     59 N          35.7759   31.0130    7.3131 N.am      10 UNK        -0.4215 
     60 CA         36.8682   30.3749    8.0596 C.3       10 UNK         0.0240 
     61 CB         37.8821   31.4460    8.4945 C.3       10 UNK        -0.1982 
     62 C          37.5764   29.2450    7.2862 C.2       10 UNK         0.4970 
     63 O          38.1099   28.3326    7.9181 O.2       10 UNK        -0.4916 
     64 N          37.5496   29.3179    5.9467 N.am      11 UNK        -0.4279 
     65 CA         38.0395   28.2959    5.0057 C.3       11 UNK         0.1003 
     66 C          39.5878   28.1008    4.9762 C.2       11 UNK         0.5709 
     67 N          40.3785   28.9839    5.5745 N.am      11 UNK        -0.7358 
     68 O          40.0875   27.1585    4.3656 O.2       11 UNK        -0.4999 
     69 C69        37.2348   26.9593    5.1221 C.3       12 UNK        -0.0954 
     70 S70        36.1697   26.6481    3.6768 S.3       12 UNK        -0.2268 
     71 C71        34.5959   27.3811    4.2239 C.3       12 UNK         0.0203 
     72 H72        24.8124   28.8050    4.2795 H         1 UNK         0.0888 
     73 H73        24.7666   27.9263    5.8122 H         1 UNK         0.0888 
     74 H74        26.3144   28.4129    5.1271 H         1 UNK         0.0888 
     75 H75        27.2591   27.1467    3.4477 H         1 UNK         0.3017 
     76 H76        26.3704   24.3970    3.1759 H         1 UNK         0.0873 
     77 H77        28.6908   25.9591    1.9572 H         1 UNK         0.0745 
     78 H78        28.4374   24.2397    1.7106 H         1 UNK         0.0745 
     79 H79        30.6552   23.4932    2.4450 H         1 UNK         0.0705 
     80 H80        31.3085   23.5885    4.0581 H         1 UNK         0.0705 
     81 H81        32.8617   25.3315    4.6538 H         1 UNK         0.1334 
     82 H82        33.7790   28.4346    1.8346 H         1 UNK         0.1417 
     83 H83        30.6663   25.6183    0.9875 H         1 UNK         0.1562 
     84 H84        31.8303   27.0575   -0.8369 H         1 UNK         0.0748 
     85 H85        32.6492   28.5105   -0.3062 H         1 UNK         0.0748 
     86 H86        30.7992   28.7383   -2.3112 H         1 UNK         0.0940 
     87 H87        29.8836   30.1284   -1.8354 H         1 UNK         0.0940 
     88 H88        28.6458   28.5497   -3.3443 H         1 UNK         0.0703 
     89 H89        29.3503   26.5736   -1.3914 H         1 UNK         0.3081 
     90 H90        28.5613   24.0893   -3.5085 H         1 UNK         0.0719 
     91 H91        29.6771   23.1945   -1.4872 H         1 UNK         0.0809 
     92 H92        30.4009   24.7264   -1.9280 H         1 UNK         0.0809 
     93 H93        29.2681   24.6354   -0.5725 H         1 UNK         0.0809 
     94 H94        26.7059   24.3533   -1.1855 H         1 UNK         0.2990 
     95 H95        24.4589   22.1205   -2.4917 H         1 UNK         0.0690 
     96 H96        25.9216   20.2110   -1.8370 H         1 UNK         0.0788 
     97 H97        24.7019   20.5042   -0.6102 H         1 UNK         0.0788 
     98 H98        26.3653   21.0318   -0.3473 H         1 UNK         0.0788 
     99 H99        24.9796   22.9807    0.2309 H         1 UNK         0.2993 
    100 H100       23.7201   26.2357   -0.1296 H         1 UNK         0.0949 
    101 H101       22.2263   23.8997    1.1702 H         1 UNK         0.0767 
    102 H102       22.0047   25.6104    1.5393 H         1 UNK         0.0767 
    103 H103       21.5593   24.9876   -0.0403 H         1 UNK         0.0767 
    104 H104       24.2612   24.9825    2.2778 H         1 UNK         0.3013 
    105 H105       26.8420   27.3541   -0.7011 H         1 UNK         0.3121 
    106 H106       25.0473   27.9748    0.4261 H         1 UNK         0.0774 
    107 H107       24.5243   30.1218   -1.6895 H         1 UNK         0.0815 
    108 H108       23.3610   29.4522   -0.5584 H         1 UNK         0.0815 
    109 H109       24.0312   28.4336   -1.8222 H         1 UNK         0.0815 
    110 H110       27.5027   28.8907    1.2794 H         1 UNK         0.2987 
    111 H111       26.7521   30.9655    3.1478 H         1 UNK         0.0949 
    112 H112       28.6734   32.4527    2.5561 H         1 UNK         0.0806 
    113 H113       29.1325   31.3863    1.2328 H         1 UNK         0.0806 
    114 H114       27.6287   32.2982    1.1592 H         1 UNK         0.0806 
    115 H115       29.2385   31.3689    4.2796 H         1 UNK         0.3010 
    116 H116       30.7497   28.9356    4.5166 H         1 UNK         0.0829 
    117 H117       28.9223   28.4264    6.1663 H         1 UNK         0.0813 
    118 H118       30.4272   28.7482    7.0092 H         1 UNK         0.0813 
    119 H119       29.1763   29.9844    6.9531 H         1 UNK         0.0813 
    120 H120       32.6813   29.3964    5.9306 H         1 UNK         0.3038 
    121 H121       33.3649   32.0722    6.6462 H         1 UNK         0.0769 
    122 H122       34.7110   30.8736    4.1385 H         1 UNK         0.0811 
    123 H123       35.1980   32.3592    4.9438 H         1 UNK         0.0811 
    124 H124       33.6493   32.2761    4.1362 H         1 UNK         0.0811 
    125 H125       35.8990   31.9882    7.0797 H         1 UNK         0.3204 
    126 H126       36.4364   29.9284    8.9579 H         1 UNK         0.0748 
    127 H127       38.6943   31.0030    9.0730 H         1 UNK         0.0771 
    128 H128       38.3301   31.9521    7.6384 H         1 UNK         0.0771 
    129 H129       37.4147   32.2022    9.1257 H         1 UNK         0.0771 
    130 H130       37.1221   30.1275    5.5238 H         1 UNK         0.2980 
    131 H131       37.8374   28.7300    4.0261 H         1 UNK         0.0545 
    132 H132       39.9865   29.7675    6.0707 H         1 UNK         0.3459 
    133 H133       41.3776   28.8566    5.5366 H         1 UNK         0.3459 
    134 H134       37.8924   26.0946    5.2240 H         1 UNK         0.0616 
    135 H135       36.6162   26.9332    6.0199 H         1 UNK         0.0616 
    136 H136       34.3965   27.0989    5.2588 H         1 UNK         0.0634 
    137 H137       34.6786   28.4679    4.2089 H         1 UNK         0.0634 
@<TRIPOS>BOND
     1    1    2 1    
     2    1   72 1    
     3    1   73 1    
     4    1   74 1    
     5    2    3 2    
     6    2    4 am   BACKBONE|DICT|INTERRES
     7    4    5 1    
     8    4   75 1    
     9    5    6 1    
    10    5   35 1    
    11    5   76 1    
    12    6    7 1    
    13    6   77 1    
    14    6   78 1    
    15    7    8 1    
    16    8    9 1    
    17    8   79 1    
    18    8   80 1    
    19    9   10 ar   
    20    9   14 ar   
    21   10   11 ar   
    22   10   81 1    
    23   11   12 ar   
    24   11   71 1    
    25   12   13 ar   
    26   12   82 1    
    27   13   14 ar   
    28   13   15 1    
    29   14   83 1    
    30   15   16 1    
    31   15   84 1    
    32   15   85 1    
    33   16   17 1    
    34   17   18 1    
    35   17   86 1    
    36   17   87 1    
    37   18   19 1    
    38   18   37 1    
    39   18   88 1    
    40   19   20 am   BACKBONE|DICT|INTERRES
    41   19   89 1    
    42   20   21 2    
    43   20   22 1    
    44   22   23 1    
    45   22   24 1    
    46   22   90 1    
    47   23   91 1    
    48   23   92 1    
    49   23   93 1    
    50   24   25 am   BACKBONE|DICT|INTERRES
    51   24   94 1    
    52   25   26 2    
    53   25   27 1    
    54   27   28 1    
    55   27   29 1    
    56   27   95 1    
    57   28   96 1    
    58   28   97 1    
    59   28   98 1    
    60   29   30 am   BACKBONE|DICT|INTERRES
    61   29   99 1    
    62   30   31 2    
    63   30   32 1    
    64   32   33 1    
    65   32   34 1    
    66   32  100 1    
    67   33  101 1    
    68   33  102 1    
    69   33  103 1    
    70   34   35 am   BACKBONE|DICT|INTERRES
    71   34  104 1    
    72   35   36 2    
    73   37   38 2    
    74   37   39 am   BACKBONE|DICT|INTERRES
    75   39   40 1    
    76   39  105 1    
    77   40   41 1    
    78   40   42 1    
    79   40  106 1    
    80   41  107 1    
    81   41  108 1    
    82   41  109 1    
    83   42   43 2    
    84   42   44 am   BACKBONE|DICT|INTERRES
    85   44   45 1    
    86   44  110 1    
    87   45   46 1    
    88   45   47 1    
    89   45  111 1    
    90   46  112 1    
    91   46  113 1    
    92   46  114 1    
    93   47   48 2    
    94   47   49 am   BACKBONE|DICT|INTERRES
    95   49   50 1    
    96   49  115 1    
    97   50   51 1    
    98   50   52 1    
    99   50  116 1    
   100   51  117 1    
   101   51  118 1    
   102   51  119 1    
   103   52   53 2    
   104   52   54 am   BACKBONE|DICT|INTERRES
   105   54   55 1    
   106   54  120 1    
   107   55   56 1    
   108   55   57 1    
   109   55  121 1    
   110   56  122 1    
   111   56  123 1    
   112   56  124 1    
   113   57   58 2    
   114   57   59 am   BACKBONE|DICT|INTERRES
   115   59   60 1    
   116   59  125 1    
   117   60   61 1    
   118   60   62 1    
   119   60  126 1    
   120   61  127 1    
   121   61  128 1    
   122   61  129 1    
   123   62   63 2    
   124   62   64 am   BACKBONE|DICT|INTERRES
   125   64   65 1    
   126   64  130 1    
   127   65   66 1    
   128   65   69 1    
   129   65  131 1    
   130   66   67 am   BACKBONE|DICT|INTERRES
   131   66   68 2    
   132   67  132 1    
   133   67  133 1    
   134   69   70 1    
   135   69  134 1    
   136   69  135 1    
   137   70   71 1    
   138   71  136 1    
   139   71  137 1    
@<TRIPOS>SUBSTRUCTURE
     1 UNK         1 GROUP             0       ****    0 ROOT    
