@<TRIPOS>MOLECULE
3R136
137   139    1
SMALL
USER_CHARGES


@<TRIPOS>ATOM
      1 CA         25.5264   24.5911    3.5585 C.3       0 UNK        -0.1979 
      2 C          25.5993   23.1628    4.0963 C.2       0 UNK         0.4864 
      3 O          24.7816   22.8112    4.9457 O.2       0 UNK        -0.5359 
      4 N          26.5363   22.3020    3.6692 N.am      1 UNK        -0.4318 
      5 CA         27.5667   22.4684    2.6347 C.3       1 UNK         0.0824 
      6 C6         28.6092   23.5770    2.9276 C.3       12 UNK        -0.0944 
      7 S7         29.4971   23.3860    4.5082 S.3       12 UNK        -0.2672 
      8 C8         31.1039   22.7218    3.9526 C.3       12 UNK         0.0333 
      9 C9         31.9176   23.7273    3.1426 C.ar      12 UNK        -0.0807 
     10 C10        32.6224   24.7469    3.7897 C.ar      12 UNK        -0.0894 
     11 C11        33.4044   25.6535    3.0646 C.ar      12 UNK        -0.0804 
     12 C12        33.4657   25.5269    1.6721 C.ar      12 UNK        -0.0824 
     13 C13        32.7571   24.5232    1.0048 C.ar      12 UNK        -0.0762 
     14 C14        31.9936   23.6199    1.7495 C.ar      12 UNK        -0.0782 
     15 C15        32.8606   24.3726   -0.5109 C.3       12 UNK         0.0230 
     16 S16        32.7295   25.9530   -1.4181 S.3       12 UNK        -0.2608 
     17 C17        30.9294   26.1701   -1.6072 C.3       12 UNK        -0.0989 
     18 CA         30.3559   27.2597   -0.6636 C.3       5 UNK         0.0716 
     19 N          29.1965   27.9226   -1.2519 N.am      5 UNK        -0.4135 
     20 C          28.8732   29.2050   -1.0364 C.2       4 UNK         0.5031 
     21 O          29.6004   30.0001   -0.4417 O.2       4 UNK        -0.5229 
     22 CA         27.5080   29.6931   -1.5538 C.3       4 UNK         0.0329 
     23 CB         27.6673   30.3953   -2.9118 C.3       4 UNK        -0.2001 
     24 N          26.5097   28.6283   -1.6755 N.am      4 UNK        -0.4303 
     25 C          25.9695   27.9548   -0.6498 C.2       3 UNK         0.5044 
     26 O          26.2207   28.1861    0.5326 O.2       3 UNK        -0.5152 
     27 CA         24.9825   26.8239   -0.9966 C.3       3 UNK         0.0319 
     28 CB         24.3685   26.9402   -2.4111 C.3       3 UNK        -0.2001 
     29 N          25.5702   25.4926   -0.8053 N.am      3 UNK        -0.4354 
     30 C          26.6857   25.0069   -1.3713 C.2       2 UNK         0.4964 
     31 O          27.4353   25.6596   -2.1027 O.2       2 UNK        -0.5047 
     32 CA         27.0009   23.5398   -1.0500 C.3       2 UNK         0.0288 
     33 CB         28.0894   22.9397   -1.9604 C.3       2 UNK        -0.2113 
     34 N          27.4230   23.4253    0.3451 N.am      2 UNK        -0.4145 
     35 C          26.9413   22.5289    1.2200 C.2       1 UNK         0.5006 
     36 O          26.0368   21.7371    0.9434 O.2       1 UNK        -0.5103 
     37 C          29.8875   26.6978    0.6865 C.2       5 UNK         0.5055 
     38 O          29.2692   25.6318    0.7142 O.2       5 UNK        -0.5220 
     39 N          30.1167   27.4534    1.7649 N.am      6 UNK        -0.4450 
     40 CA         29.7151   27.1039    3.1213 C.3       6 UNK         0.0367 
     41 CB         28.2293   27.4454    3.3374 C.3       6 UNK        -0.1929 
     42 C          30.5868   27.8630    4.1166 C.2       6 UNK         0.5070 
     43 O          31.0869   28.9421    3.7895 O.2       6 UNK        -0.5237 
     44 N          30.7253   27.3118    5.3293 N.am      7 UNK        -0.4739 
     45 CA         31.4908   27.9035    6.4337 C.3       7 UNK         0.0276 
     46 CB         31.5459   26.9158    7.6089 C.3       7 UNK        -0.1927 
     47 C          30.9402   29.2658    6.8861 C.2       7 UNK         0.5013 
     48 O          31.7220   30.1780    7.1536 O.2       7 UNK        -0.5193 
     49 N          29.6063   29.4032    6.8811 N.am      8 UNK        -0.4253 
     50 CA         28.8863   30.6535    7.1491 C.3       8 UNK         0.0242 
     51 CB         27.3819   30.3539    7.2527 C.3       8 UNK        -0.2000 
     52 C          29.1424   31.7560    6.1023 C.2       8 UNK         0.4948 
     53 O          28.9781   32.9341    6.4195 O.2       8 UNK        -0.5275 
     54 N          29.5529   31.3590    4.8904 N.am      9 UNK        -0.4246 
     55 CA         29.9440   32.2409    3.7913 C.3       9 UNK         0.0261 
     56 CB         29.3155   31.7026    2.4930 C.3       9 UNK        -0.1959 
     57 C          31.4758   32.3520    3.6588 C.2       9 UNK         0.5033 
     58 O          31.9447   32.9005    2.6603 O.2       9 UNK        -0.5390 
     59 N          32.2343   31.8075    4.6270 N.am      10 UNK        -0.4215 
     60 CA         33.7014   31.7271    4.6675 C.3       10 UNK         0.0240 
     61 CB         34.3120   33.1234    4.9127 C.3       10 UNK        -0.1982 
     62 C          34.3046   31.0131    3.4391 C.2       10 UNK         0.4970 
     63 O          35.3508   31.4301    2.9395 O.2       10 UNK        -0.4916 
     64 N          33.6102   29.9678    2.9694 N.am      11 UNK        -0.4279 
     65 CA         33.8830   29.1987    1.7442 C.3       11 UNK         0.1003 
     66 C          33.5874   29.9783    0.4249 C.2       11 UNK         0.5709 
     67 N          32.9692   31.1535    0.4556 N.am      11 UNK        -0.7358 
     68 O          33.8915   29.4908   -0.6603 O.2       11 UNK        -0.4999 
     69 C69        35.2860   28.5133    1.7268 C.3       12 UNK        -0.0954 
     70 S70        35.7076   27.3421    3.0768 S.3       12 UNK        -0.2268 
     71 C71        34.1393   26.7628    3.8207 C.3       12 UNK         0.0203 
     72 H72        26.1942   25.2360    4.1280 H         1 UNK         0.0888 
     73 H73        25.7797   24.6678    2.5041 H         1 UNK         0.0888 
     74 H74        24.5155   24.9820    3.6723 H         1 UNK         0.0888 
     75 H75        26.5115   21.3722    4.0628 H         1 UNK         0.3017 
     76 H76        28.1171   21.5262    2.6392 H         1 UNK         0.0873 
     77 H77        28.1456   24.5604    2.9156 H         1 UNK         0.0745 
     78 H78        29.3538   23.5863    2.1366 H         1 UNK         0.0745 
     79 H79        30.9345   21.8105    3.3769 H         1 UNK         0.0705 
     80 H80        31.6777   22.4205    4.8301 H         1 UNK         0.0705 
     81 H81        32.5617   24.8311    4.8663 H         1 UNK         0.1334 
     82 H82        34.0677   26.2049    1.0901 H         1 UNK         0.1417 
     83 H83        31.4614   22.8262    1.2432 H         1 UNK         0.1562 
     84 H84        32.1122   23.6744   -0.8890 H         1 UNK         0.0748 
     85 H85        33.8308   23.9294   -0.7383 H         1 UNK         0.0748 
     86 H86        30.4126   25.2156   -1.5104 H         1 UNK         0.0940 
     87 H87        30.7746   26.4682   -2.6455 H         1 UNK         0.0940 
     88 H88        31.1377   28.0019   -0.4853 H         1 UNK         0.0703 
     89 H89        28.5131   27.3065   -1.6828 H         1 UNK         0.3081 
     90 H90        27.1312   30.4226   -0.8336 H         1 UNK         0.0719 
     91 H91        28.3861   31.2134   -2.8451 H         1 UNK         0.0809 
     92 H92        28.0243   29.7102   -3.6819 H         1 UNK         0.0809 
     93 H93        26.7238   30.8230   -3.2517 H         1 UNK         0.0809 
     94 H94        26.2547   28.3481   -2.6116 H         1 UNK         0.2990 
     95 H95        24.1647   26.9076   -0.2790 H         1 UNK         0.0690 
     96 H96        23.5803   26.2007   -2.5532 H         1 UNK         0.0788 
     97 H97        25.1048   26.7850   -3.2005 H         1 UNK         0.0788 
     98 H98        23.9144   27.9202   -2.5654 H         1 UNK         0.0788 
     99 H99        25.0566   24.8821   -0.1854 H         1 UNK         0.2993 
    100 H100       26.0794   22.9802   -1.2254 H         1 UNK         0.0949 
    101 H101       27.8343   23.0659   -3.0135 H         1 UNK         0.0767 
    102 H102       29.0581   23.4097   -1.7975 H         1 UNK         0.0767 
    103 H103       28.2055   21.8708   -1.7808 H         1 UNK         0.0767 
    104 H104       28.1265   24.1046    0.6351 H         1 UNK         0.3013 
    105 H105       30.6016   28.3377    1.6819 H         1 UNK         0.3121 
    106 H106       29.8896   26.0394    3.2723 H         1 UNK         0.0774 
    107 H107       27.5905   26.9125    2.6332 H         1 UNK         0.0815 
    108 H108       27.9022   27.1737    4.3414 H         1 UNK         0.0815 
    109 H109       28.0398   28.5116    3.2052 H         1 UNK         0.0815 
    110 H110       30.2787   26.4239    5.5133 H         1 UNK         0.2987 
    111 H111       32.5113   28.0715    6.0852 H         1 UNK         0.0949 
    112 H112       32.0239   25.9801    7.3183 H         1 UNK         0.0806 
    113 H113       32.1232   27.3279    8.4379 H         1 UNK         0.0806 
    114 H114       30.5511   26.6807    7.9895 H         1 UNK         0.0806 
    115 H115       29.0472   28.5967    6.6440 H         1 UNK         0.3010 
    116 H116       29.2291   31.0356    8.1131 H         1 UNK         0.0829 
    117 H117       27.1725   29.6376    8.0474 H         1 UNK         0.0813 
    118 H118       26.8184   31.2600    7.4805 H         1 UNK         0.0813 
    119 H119       26.9847   29.9495    6.3206 H         1 UNK         0.0813 
    120 H120       29.7044   30.3716    4.7272 H         1 UNK         0.3038 
    121 H121       29.5622   33.2495    3.9620 H         1 UNK         0.0769 
    122 H122       29.5323   32.3560    1.6468 H         1 UNK         0.0811 
    123 H123       28.2309   31.6321    2.5745 H         1 UNK         0.0811 
    124 H124       29.6963   30.7125    2.2405 H         1 UNK         0.0811 
    125 H125       31.7647   31.3635    5.4085 H         1 UNK         0.3204 
    126 H126       33.9480   31.1033    5.5280 H         1 UNK         0.0748 
    127 H127       35.3896   33.0588    5.0684 H         1 UNK         0.0771 
    128 H128       34.1443   33.7917    4.0673 H         1 UNK         0.0771 
    129 H129       33.8857   33.5916    5.8000 H         1 UNK         0.0771 
    130 H130       32.7309   29.7318    3.4231 H         1 UNK         0.2980 
    131 H131       33.1349   28.4072    1.7398 H         1 UNK         0.0545 
    132 H132       32.7686   31.6173   -0.4152 H         1 UNK         0.3459 
    133 H133       32.7046   31.5973    1.3280 H         1 UNK         0.3459 
    134 H134       35.4173   27.9593    0.7964 H         1 UNK         0.0616 
    135 H135       36.0694   29.2713    1.7034 H         1 UNK         0.0616 
    136 H136       34.3908   26.3959    4.8169 H         1 UNK         0.0634 
    137 H137       33.4660   27.5972    3.9842 H         1 UNK         0.0634 
@<TRIPOS>BOND
     1    1    2 1    
     2    1   72 1    
     3    1   73 1    
     4    1   74 1    
     5    2    3 2    
     6    2    4 am   BACKBONE|DICT|INTERRES
     7    4    5 1    
     8    4   75 1    
     9    5    6 1    
    10    5   35 1    
    11    5   76 1    
    12    6    7 1    
    13    6   77 1    
    14    6   78 1    
    15    7    8 1    
    16    8    9 1    
    17    8   79 1    
    18    8   80 1    
    19    9   10 ar   
    20    9   14 ar   
    21   10   11 ar   
    22   10   81 1    
    23   11   12 ar   
    24   11   71 1    
    25   12   13 ar   
    26   12   82 1    
    27   13   14 ar   
    28   13   15 1    
    29   14   83 1    
    30   15   16 1    
    31   15   84 1    
    32   15   85 1    
    33   16   17 1    
    34   17   18 1    
    35   17   86 1    
    36   17   87 1    
    37   18   19 1    
    38   18   37 1    
    39   18   88 1    
    40   19   20 am   BACKBONE|DICT|INTERRES
    41   19   89 1    
    42   20   21 2    
    43   20   22 1    
    44   22   23 1    
    45   22   24 1    
    46   22   90 1    
    47   23   91 1    
    48   23   92 1    
    49   23   93 1    
    50   24   25 am   BACKBONE|DICT|INTERRES
    51   24   94 1    
    52   25   26 2    
    53   25   27 1    
    54   27   28 1    
    55   27   29 1    
    56   27   95 1    
    57   28   96 1    
    58   28   97 1    
    59   28   98 1    
    60   29   30 am   BACKBONE|DICT|INTERRES
    61   29   99 1    
    62   30   31 2    
    63   30   32 1    
    64   32   33 1    
    65   32   34 1    
    66   32  100 1    
    67   33  101 1    
    68   33  102 1    
    69   33  103 1    
    70   34   35 am   BACKBONE|DICT|INTERRES
    71   34  104 1    
    72   35   36 2    
    73   37   38 2    
    74   37   39 am   BACKBONE|DICT|INTERRES
    75   39   40 1    
    76   39  105 1    
    77   40   41 1    
    78   40   42 1    
    79   40  106 1    
    80   41  107 1    
    81   41  108 1    
    82   41  109 1    
    83   42   43 2    
    84   42   44 am   BACKBONE|DICT|INTERRES
    85   44   45 1    
    86   44  110 1    
    87   45   46 1    
    88   45   47 1    
    89   45  111 1    
    90   46  112 1    
    91   46  113 1    
    92   46  114 1    
    93   47   48 2    
    94   47   49 am   BACKBONE|DICT|INTERRES
    95   49   50 1    
    96   49  115 1    
    97   50   51 1    
    98   50   52 1    
    99   50  116 1    
   100   51  117 1    
   101   51  118 1    
   102   51  119 1    
   103   52   53 2    
   104   52   54 am   BACKBONE|DICT|INTERRES
   105   54   55 1    
   106   54  120 1    
   107   55   56 1    
   108   55   57 1    
   109   55  121 1    
   110   56  122 1    
   111   56  123 1    
   112   56  124 1    
   113   57   58 2    
   114   57   59 am   BACKBONE|DICT|INTERRES
   115   59   60 1    
   116   59  125 1    
   117   60   61 1    
   118   60   62 1    
   119   60  126 1    
   120   61  127 1    
   121   61  128 1    
   122   61  129 1    
   123   62   63 2    
   124   62   64 am   BACKBONE|DICT|INTERRES
   125   64   65 1    
   126   64  130 1    
   127   65   66 1    
   128   65   69 1    
   129   65  131 1    
   130   66   67 am   BACKBONE|DICT|INTERRES
   131   66   68 2    
   132   67  132 1    
   133   67  133 1    
   134   69   70 1    
   135   69  134 1    
   136   69  135 1    
   137   70   71 1    
   138   71  136 1    
   139   71  137 1    
@<TRIPOS>SUBSTRUCTURE
     1 UNK         1 GROUP             0       ****    0 ROOT    
