@<TRIPOS>MOLECULE
3R136
137   139    1
SMALL
USER_CHARGES


@<TRIPOS>ATOM
      1 CA         31.8015   26.8447   -2.5541 C.3       0 UNK        -0.1979 
      2 C          30.9999   25.6402   -2.0830 C.2       0 UNK         0.4864 
      3 O          31.1971   24.5372   -2.5938 O.2       0 UNK        -0.5359 
      4 N          30.0937   25.8553   -1.1210 N.am      1 UNK        -0.4318 
      5 CA         29.1481   24.8822   -0.5682 C.3       1 UNK         0.0824 
      6 C6         29.8281   23.6547    0.0986 C.3       12 UNK        -0.0944 
      7 S7         28.8119   22.9290    1.4316 S.3       12 UNK        -0.2672 
      8 C8         30.0507   21.9380    2.3243 C.3       12 UNK         0.0333 
      9 C9         30.7974   22.7794    3.3472 C.ar      12 UNK        -0.0807 
     10 C10        32.0362   23.3479    3.0360 C.ar      12 UNK        -0.0894 
     11 C11        32.7055   24.1423    3.9716 C.ar      12 UNK        -0.0804 
     12 C12        32.1275   24.3651    5.2250 C.ar      12 UNK        -0.0824 
     13 C13        30.8865   23.8094    5.5456 C.ar      12 UNK        -0.0762 
     14 C14        30.2380   22.9969    4.6094 C.ar      12 UNK        -0.0782 
     15 C15        30.2533   24.0965    6.9019 C.3       12 UNK         0.0230 
     16 S16        28.5242   24.6609    6.7732 S.3       12 UNK        -0.2608 
     17 C17        28.6749   26.2338    5.8477 C.3       12 UNK        -0.0989 
     18 CA         28.5177   26.0931    4.3025 C.3       5 UNK         0.0716 
     19 N          27.4192   25.2108    3.8871 N.am      5 UNK        -0.4135 
     20 C          26.1116   25.3623    4.1388 C.2       4 UNK         0.5031 
     21 O          25.6204   26.3101    4.7553 O.2       4 UNK        -0.5229 
     22 CA         25.1944   24.2634    3.5635 C.3       4 UNK         0.0329 
     23 CB         24.1590   23.8039    4.6049 C.3       4 UNK        -0.2001 
     24 N          24.4963   24.6532    2.3306 N.am      4 UNK        -0.4303 
     25 C          25.0591   25.2024    1.2463 C.2       3 UNK         0.5044 
     26 O          26.2496   25.5262    1.1772 O.2       3 UNK        -0.5152 
     27 CA         24.1534   25.4255    0.0243 C.3       3 UNK         0.0319 
     28 CB         23.1597   26.5770    0.2514 C.3       3 UNK        -0.2001 
     29 N          25.0445   25.7617   -1.0765 N.am      3 UNK        -0.4354 
     30 C          25.0361   25.2697   -2.3171 C.2       2 UNK         0.4964 
     31 O          24.1014   24.6370   -2.8090 O.2       2 UNK        -0.5047 
     32 CA         26.3284   25.4984   -3.1264 C.3       2 UNK         0.0288 
     33 CB         26.2236   26.7828   -3.9644 C.3       2 UNK        -0.2113 
     34 N          27.5156   25.5789   -2.2626 N.am      2 UNK        -0.4145 
     35 C          28.0387   24.5395   -1.5894 C.2       1 UNK         0.5006 
     36 O          27.6660   23.3753   -1.7506 O.2       1 UNK        -0.5103 
     37 C          28.5076   27.4678    3.5886 C.2       5 UNK         0.5055 
     38 O          29.1762   28.3922    4.0550 O.2       5 UNK        -0.5220 
     39 N          27.7677   27.5988    2.4762 N.am      6 UNK        -0.4450 
     40 CA         27.6751   28.8268    1.6884 C.3       6 UNK         0.0367 
     41 CB         26.3456   28.8511    0.9168 C.3       6 UNK        -0.1929 
     42 C          28.8759   28.9273    0.7402 C.2       6 UNK         0.5070 
     43 O          28.9170   28.2289   -0.2751 O.2       6 UNK        -0.5237 
     44 N          29.8362   29.7801    1.0955 N.am      7 UNK        -0.4739 
     45 CA         31.0487   30.0797    0.3419 C.3       7 UNK         0.0276 
     46 CB         32.0733   28.9400    0.5078 C.3       7 UNK        -0.1927 
     47 C          31.6089   31.4111    0.8603 C.2       7 UNK         0.5013 
     48 O          31.0712   31.9698    1.8240 O.2       7 UNK        -0.5193 
     49 N          32.6944   31.8855    0.2333 N.am      8 UNK        -0.4253 
     50 CA         33.4399   33.0834    0.6334 C.3       8 UNK         0.0242 
     51 CB         34.6367   33.2806   -0.3107 C.3       8 UNK        -0.2000 
     52 C          33.9122   32.9971    2.0950 C.2       8 UNK         0.4948 
     53 O          34.4671   31.9689    2.4906 O.2       8 UNK        -0.5275 
     54 N          33.6263   34.0522    2.8717 N.am      9 UNK        -0.4246 
     55 CA         33.8728   34.1796    4.3164 C.3       9 UNK         0.0261 
     56 CB         35.3884   34.2733    4.5972 C.3       9 UNK        -0.1959 
     57 C          33.1817   33.0945    5.1748 C.2       9 UNK         0.5033 
     58 O          33.6537   32.8089    6.2763 O.2       9 UNK        -0.5390 
     59 N          32.0863   32.5118    4.6578 N.am      10 UNK        -0.4215 
     60 CA         31.3495   31.3634    5.2018 C.3       10 UNK         0.0240 
     61 CB         30.7007   31.6960    6.5633 C.3       10 UNK        -0.1982 
     62 C          32.1867   30.0671    5.2220 C.2       10 UNK         0.4970 
     63 O          32.0059   29.2370    6.1154 O.2       10 UNK        -0.4916 
     64 N          33.0669   29.9126    4.2214 N.am      11 UNK        -0.4279 
     65 CA         33.9491   28.7577    4.0075 C.3       11 UNK         0.1003 
     66 C          35.1237   28.6672    5.0276 C.2       11 UNK         0.5709 
     67 N          35.9486   27.6332    4.9341 N.am      11 UNK        -0.7358 
     68 O          35.3266   29.5318    5.8779 O.2       11 UNK        -0.4999 
     69 C69        33.1434   27.4312    3.8530 C.3       12 UNK        -0.0954 
     70 S70        33.8692   26.2782    2.6391 S.3       12 UNK        -0.2268 
     71 C71        34.0531   24.7596    3.6269 C.3       12 UNK         0.0203 
     72 H72        32.8122   26.8048   -2.1487 H         1 UNK         0.0888 
     73 H73        31.8688   26.8515   -3.6417 H         1 UNK         0.0888 
     74 H74        31.3421   27.7826   -2.2419 H         1 UNK         0.0888 
     75 H75        29.9333   26.8069   -0.7923 H         1 UNK         0.3017 
     76 H76        28.6478   25.4363    0.2264 H         1 UNK         0.0873 
     77 H77        30.7756   23.9656    0.5391 H         1 UNK         0.0745 
     78 H78        30.0756   22.8856   -0.6352 H         1 UNK         0.0745 
     79 H79        30.7431   21.4799    1.6161 H         1 UNK         0.0705 
     80 H80        29.5437   21.1142    2.8290 H         1 UNK         0.0705 
     81 H81        32.4781   23.1812    2.0632 H         1 UNK         0.1334 
     82 H82        32.6419   24.9794    5.9512 H         1 UNK         0.1417 
     83 H83        29.2790   22.5599    4.8530 H         1 UNK         0.1562 
     84 H84        30.8257   24.8455    7.4515 H         1 UNK         0.0748 
     85 H85        30.2817   23.1855    7.5010 H         1 UNK         0.0748 
     86 H86        29.6345   26.6959    6.0896 H         1 UNK         0.0940 
     87 H87        27.9133   26.9113    6.2382 H         1 UNK         0.0940 
     88 H88        29.4205   25.6086    3.9307 H         1 UNK         0.0703 
     89 H89        27.6995   24.4290    3.3103 H         1 UNK         0.3081 
     90 H90        25.8151   23.3992    3.3169 H         1 UNK         0.0719 
     91 H91        23.4496   24.5968    4.8459 H         1 UNK         0.0809 
     92 H92        23.5930   22.9417    4.2517 H         1 UNK         0.0809 
     93 H93        24.6467   23.5102    5.5356 H         1 UNK         0.0809 
     94 H94        23.5082   24.4479    2.2998 H         1 UNK         0.2990 
     95 H95        23.6171   24.4987   -0.1900 H         1 UNK         0.0690 
     96 H96        23.6676   27.5083    0.5024 H         1 UNK         0.0788 
     97 H97        22.4709   26.3497    1.0657 H         1 UNK         0.0788 
     98 H98        22.5579   26.7570   -0.6396 H         1 UNK         0.0788 
     99 H99        25.9058   26.1843   -0.7550 H         1 UNK         0.2993 
    100 H100       26.4508   24.6501   -3.8035 H         1 UNK         0.0949 
    101 H101       27.1072   26.9227   -4.5875 H         1 UNK         0.0767 
    102 H102       25.3609   26.7432   -4.6311 H         1 UNK         0.0767 
    103 H103       26.1107   27.6680   -3.3367 H         1 UNK         0.0767 
    104 H104       27.8986   26.4994   -2.0938 H         1 UNK         0.3013 
    105 H105       27.2643   26.7907    2.1163 H         1 UNK         0.3121 
    106 H106       27.6776   29.6859    2.3631 H         1 UNK         0.0774 
    107 H107       26.2310   29.7895    0.3730 H         1 UNK         0.0815 
    108 H108       26.2827   28.0462    0.1859 H         1 UNK         0.0815 
    109 H109       25.4959   28.7610    1.5933 H         1 UNK         0.0815 
    110 H110       29.7293   30.3430    1.9316 H         1 UNK         0.2987 
    111 H111       30.7899   30.1991   -0.7124 H         1 UNK         0.0949 
    112 H112       32.9261   29.0702   -0.1588 H         1 UNK         0.0806 
    113 H113       32.4598   28.9063    1.5240 H         1 UNK         0.0806 
    114 H114       31.6430   27.9634    0.2912 H         1 UNK         0.0806 
    115 H115       33.0831   31.3525   -0.5307 H         1 UNK         0.3010 
    116 H116       32.7683   33.9376    0.5244 H         1 UNK         0.0829 
    117 H117       34.3140   33.3940   -1.3458 H         1 UNK         0.0813 
    118 H118       35.1976   34.1786   -0.0474 H         1 UNK         0.0813 
    119 H119       35.3298   32.4393   -0.2637 H         1 UNK         0.0813 
    120 H120       33.1497   34.8369    2.4474 H         1 UNK         0.3038 
    121 H121       33.4237   35.1269    4.6184 H         1 UNK         0.0769 
    122 H122       35.5804   34.5195    5.6423 H         1 UNK         0.0811 
    123 H123       35.8578   35.0495    3.9930 H         1 UNK         0.0811 
    124 H124       35.8962   33.3311    4.3877 H         1 UNK         0.0811 
    125 H125       31.7926   32.7958    3.7293 H         1 UNK         0.3204 
    126 H126       30.5374   31.1719    4.4985 H         1 UNK         0.0748 
    127 H127       30.0248   30.8988    6.8756 H         1 UNK         0.0771 
    128 H128       31.4450   31.8153    7.3509 H         1 UNK         0.0771 
    129 H129       30.1150   32.6136    6.5107 H         1 UNK         0.0771 
    130 H130       33.2307   30.6911    3.5934 H         1 UNK         0.2980 
    131 H131       34.4264   28.9824    3.0531 H         1 UNK         0.0545 
    132 H132       36.7246   27.5611    5.5729 H         1 UNK         0.3459 
    133 H133       35.8091   26.9337    4.2217 H         1 UNK         0.3459 
    134 H134       33.0204   26.9512    4.8229 H         1 UNK         0.0616 
    135 H135       32.1287   27.6336    3.5057 H         1 UNK         0.0616 
    136 H136       34.6211   24.9759    4.5329 H         1 UNK         0.0634 
    137 H137       34.6472   24.0421    3.0591 H         1 UNK         0.0634 
@<TRIPOS>BOND
     1    1    2 1    
     2    1   72 1    
     3    1   73 1    
     4    1   74 1    
     5    2    3 2    
     6    2    4 am   BACKBONE|DICT|INTERRES
     7    4    5 1    
     8    4   75 1    
     9    5    6 1    
    10    5   35 1    
    11    5   76 1    
    12    6    7 1    
    13    6   77 1    
    14    6   78 1    
    15    7    8 1    
    16    8    9 1    
    17    8   79 1    
    18    8   80 1    
    19    9   10 ar   
    20    9   14 ar   
    21   10   11 ar   
    22   10   81 1    
    23   11   12 ar   
    24   11   71 1    
    25   12   13 ar   
    26   12   82 1    
    27   13   14 ar   
    28   13   15 1    
    29   14   83 1    
    30   15   16 1    
    31   15   84 1    
    32   15   85 1    
    33   16   17 1    
    34   17   18 1    
    35   17   86 1    
    36   17   87 1    
    37   18   19 1    
    38   18   37 1    
    39   18   88 1    
    40   19   20 am   BACKBONE|DICT|INTERRES
    41   19   89 1    
    42   20   21 2    
    43   20   22 1    
    44   22   23 1    
    45   22   24 1    
    46   22   90 1    
    47   23   91 1    
    48   23   92 1    
    49   23   93 1    
    50   24   25 am   BACKBONE|DICT|INTERRES
    51   24   94 1    
    52   25   26 2    
    53   25   27 1    
    54   27   28 1    
    55   27   29 1    
    56   27   95 1    
    57   28   96 1    
    58   28   97 1    
    59   28   98 1    
    60   29   30 am   BACKBONE|DICT|INTERRES
    61   29   99 1    
    62   30   31 2    
    63   30   32 1    
    64   32   33 1    
    65   32   34 1    
    66   32  100 1    
    67   33  101 1    
    68   33  102 1    
    69   33  103 1    
    70   34   35 am   BACKBONE|DICT|INTERRES
    71   34  104 1    
    72   35   36 2    
    73   37   38 2    
    74   37   39 am   BACKBONE|DICT|INTERRES
    75   39   40 1    
    76   39  105 1    
    77   40   41 1    
    78   40   42 1    
    79   40  106 1    
    80   41  107 1    
    81   41  108 1    
    82   41  109 1    
    83   42   43 2    
    84   42   44 am   BACKBONE|DICT|INTERRES
    85   44   45 1    
    86   44  110 1    
    87   45   46 1    
    88   45   47 1    
    89   45  111 1    
    90   46  112 1    
    91   46  113 1    
    92   46  114 1    
    93   47   48 2    
    94   47   49 am   BACKBONE|DICT|INTERRES
    95   49   50 1    
    96   49  115 1    
    97   50   51 1    
    98   50   52 1    
    99   50  116 1    
   100   51  117 1    
   101   51  118 1    
   102   51  119 1    
   103   52   53 2    
   104   52   54 am   BACKBONE|DICT|INTERRES
   105   54   55 1    
   106   54  120 1    
   107   55   56 1    
   108   55   57 1    
   109   55  121 1    
   110   56  122 1    
   111   56  123 1    
   112   56  124 1    
   113   57   58 2    
   114   57   59 am   BACKBONE|DICT|INTERRES
   115   59   60 1    
   116   59  125 1    
   117   60   61 1    
   118   60   62 1    
   119   60  126 1    
   120   61  127 1    
   121   61  128 1    
   122   61  129 1    
   123   62   63 2    
   124   62   64 am   BACKBONE|DICT|INTERRES
   125   64   65 1    
   126   64  130 1    
   127   65   66 1    
   128   65   69 1    
   129   65  131 1    
   130   66   67 am   BACKBONE|DICT|INTERRES
   131   66   68 2    
   132   67  132 1    
   133   67  133 1    
   134   69   70 1    
   135   69  134 1    
   136   69  135 1    
   137   70   71 1    
   138   71  136 1    
   139   71  137 1    
@<TRIPOS>SUBSTRUCTURE
     1 UNK         1 GROUP             0       ****    0 ROOT    
