@<TRIPOS>MOLECULE
3R136
137   139    1
SMALL
USER_CHARGES


@<TRIPOS>ATOM
      1 CA         28.1075   21.3136    0.5793 C.3       0 UNK        -0.1979 
      2 C          28.8397   22.4456   -0.1248 C.2       0 UNK         0.4864 
      3 O          28.9621   22.4251   -1.3502 O.2       0 UNK        -0.5359 
      4 N          29.3155   23.4388    0.6388 N.am      1 UNK        -0.4318 
      5 CA         30.0332   24.6283    0.1657 C.3       1 UNK         0.0824 
      6 C6         30.5565   25.4805    1.3489 C.3       12 UNK        -0.0944 
      7 S7         32.0378   24.7325    2.1083 S.3       12 UNK        -0.2672 
      8 C8         31.3718   23.5924    3.3619 C.3       12 UNK         0.0333 
      9 C9         30.7216   24.3158    4.5308 C.ar      12 UNK        -0.0807 
     10 C10        31.5178   24.8668    5.5399 C.ar      12 UNK        -0.0894 
     11 C11        30.9316   25.4831    6.6489 C.ar      12 UNK        -0.0804 
     12 C12        29.5377   25.5517    6.7392 C.ar      12 UNK        -0.0824 
     13 C13        28.7306   25.0003    5.7384 C.ar      12 UNK        -0.0762 
     14 C14        29.3282   24.3867    4.6343 C.ar      12 UNK        -0.0782 
     15 C15        27.2155   25.0322    5.8799 C.3       12 UNK         0.0230 
     16 S16        26.5565   26.6933    5.5470 S.3       12 UNK        -0.2608 
     17 C17        25.6486   26.4787    3.9734 C.3       12 UNK        -0.0989 
     18 CA         26.5131   26.6881    2.6968 C.3       5 UNK         0.0716 
     19 N          25.8411   26.2696    1.4607 N.am      5 UNK        -0.4135 
     20 C          24.7141   26.7954    0.9558 C.2       4 UNK         0.5031 
     21 O          24.0163   27.6160    1.5527 O.2       4 UNK        -0.5229 
     22 CA         24.2812   26.3648   -0.4554 C.3       4 UNK         0.0329 
     23 CB         24.2175   27.5805   -1.3994 C.3       4 UNK        -0.2001 
     24 N          25.1529   25.3527   -1.0603 N.am      4 UNK        -0.4303 
     25 C          24.7163   24.3050   -1.7767 C.2       3 UNK         0.5044 
     26 O          23.5273   23.9928   -1.8650 O.2       3 UNK        -0.5152 
     27 CA         25.7714   23.4630   -2.5322 C.3       3 UNK         0.0319 
     28 CB         25.2373   22.9140   -3.8720 C.3       3 UNK        -0.2001 
     29 N          27.0567   24.1468   -2.7288 N.am      3 UNK        -0.4354 
     30 C          27.2824   25.3086   -3.3664 C.2       2 UNK         0.4964 
     31 O          26.4232   25.9088   -4.0132 O.2       2 UNK        -0.5047 
     32 CA         28.6882   25.9327   -3.2191 C.3       2 UNK         0.0288 
     33 CB         28.6243   27.4726   -3.1666 C.3       2 UNK        -0.2113 
     34 N          29.4588   25.4092   -2.0798 N.am      2 UNK        -0.4145 
     35 C          29.1329   25.4479   -0.7774 C.2       1 UNK         0.5006 
     36 O          28.1358   26.0163   -0.3203 O.2       1 UNK        -0.5103 
     37 C          27.0853   28.1131    2.5259 C.2       5 UNK         0.5055 
     38 O          26.7850   29.0181    3.3079 O.2       5 UNK        -0.5220 
     39 N          27.9235   28.2918    1.4946 N.am      6 UNK        -0.4450 
     40 CA         28.6921   29.5149    1.2390 C.3       6 UNK         0.0367 
     41 CB         29.1081   29.5526   -0.2412 C.3       6 UNK        -0.1929 
     42 C          29.8955   29.6429    2.1956 C.2       6 UNK         0.5070 
     43 O          31.0352   29.7654    1.7464 O.2       6 UNK        -0.5237 
     44 N          29.6158   29.6071    3.5055 N.am      7 UNK        -0.4739 
     45 CA         30.5794   29.6189    4.6098 C.3       7 UNK         0.0276 
     46 CB         29.8134   29.5843    5.9415 C.3       7 UNK        -0.1927 
     47 C          31.5518   30.8072    4.5722 C.2       7 UNK         0.5013 
     48 O          32.7447   30.6236    4.8115 O.2       7 UNK        -0.5193 
     49 N          31.0415   31.9887    4.1992 N.am      8 UNK        -0.4253 
     50 CA         31.8118   33.2251    4.0284 C.3       8 UNK         0.0242 
     51 CB         30.8409   34.3863    3.7588 C.3       8 UNK        -0.2000 
     52 C          32.8895   33.1600    2.9274 C.2       8 UNK         0.4948 
     53 O          33.8314   33.9521    2.9714 O.2       8 UNK        -0.5275 
     54 N          32.7452   32.2279    1.9756 N.am      9 UNK        -0.4246 
     55 CA         33.7046   31.9621    0.9032 C.3       9 UNK         0.0261 
     56 CB         32.9314   31.8577   -0.4243 C.3       9 UNK        -0.1959 
     57 C          34.5235   30.6824    1.1636 C.2       9 UNK         0.5033 
     58 O          35.2831   30.2787    0.2805 O.2       9 UNK        -0.5390 
     59 N          34.3563   30.0548    2.3357 N.am      10 UNK        -0.4215 
     60 CA         34.9517   28.7720    2.6924 C.3       10 UNK         0.0240 
     61 CB         33.9023   27.6591    2.5002 C.3       10 UNK        -0.1982 
     62 C          35.5286   28.8528    4.1117 C.2       10 UNK         0.4970 
     63 O          36.6217   29.3948    4.2810 O.2       10 UNK        -0.4916 
     64 N          34.8110   28.2916    5.0922 N.am      11 UNK        -0.4279 
     65 CA         35.2163   28.1945    6.5014 C.3       11 UNK         0.1003 
     66 C          35.3516   29.5428    7.2693 C.2       11 UNK         0.5709 
     67 N          34.7332   30.6290    6.8245 N.am      11 UNK        -0.7358 
     68 O          36.0456   29.6023    8.2820 O.2       11 UNK        -0.4999 
     69 C69        34.3359   27.1705    7.2648 C.3       12 UNK        -0.0954 
     70 S70        32.5659   27.6188    7.3123 S.3       12 UNK        -0.2268 
     71 C71        31.7999   26.0351    7.7701 C.3       12 UNK         0.0203 
     72 H72        27.0819   21.2478    0.2172 H         1 UNK         0.0888 
     73 H73        28.6023   20.3646    0.3746 H         1 UNK         0.0888 
     74 H74        28.0779   21.4540    1.6596 H         1 UNK         0.0888 
     75 H75        29.1643   23.3973    1.6334 H         1 UNK         0.3017 
     76 H76        30.8939   24.2825   -0.4115 H         1 UNK         0.0873 
     77 H77        29.7847   25.6507    2.1002 H         1 UNK         0.0745 
     78 H78        30.8578   26.4727    1.0052 H         1 UNK         0.0745 
     79 H79        30.6787   22.8888    2.9023 H         1 UNK         0.0705 
     80 H80        32.1958   22.9841    3.7381 H         1 UNK         0.0705 
     81 H81        32.5951   24.8034    5.4689 H         1 UNK         0.1334 
     82 H82        29.0760   26.0213    7.5972 H         1 UNK         0.1417 
     83 H83        28.7058   23.9443    3.8699 H         1 UNK         0.1562 
     84 H84        26.9444   24.7473    6.8976 H         1 UNK         0.0748 
     85 H85        26.7481   24.2934    5.2275 H         1 UNK         0.0748 
     86 H86        24.8126   27.1796    3.9845 H         1 UNK         0.0940 
     87 H87        25.1950   25.4868    3.9591 H         1 UNK         0.0940 
     88 H88        27.3790   26.0315    2.7912 H         1 UNK         0.0703 
     89 H89        26.3754   25.6444    0.8731 H         1 UNK         0.3081 
     90 H90        23.2709   25.9660   -0.3430 H         1 UNK         0.0719 
     91 H91        23.5522   28.3520   -1.0094 H         1 UNK         0.0809 
     92 H92        25.2007   28.0328   -1.5365 H         1 UNK         0.0809 
     93 H93        23.8412   27.2983   -2.3830 H         1 UNK         0.0809 
     94 H94        26.1469   25.5495   -1.0579 H         1 UNK         0.2990 
     95 H95        25.9842   22.6079   -1.8894 H         1 UNK         0.0690 
     96 H96        25.9902   22.3131   -4.3822 H         1 UNK         0.0788 
     97 H97        24.9340   23.7156   -4.5460 H         1 UNK         0.0788 
     98 H98        24.3675   22.2746   -3.7164 H         1 UNK         0.0788 
     99 H99        27.8454   23.6995   -2.2667 H         1 UNK         0.2993 
    100 H100       29.2394   25.6511   -4.1176 H         1 UNK         0.0949 
    101 H101       27.9589   27.8137   -2.3741 H         1 UNK         0.0767 
    102 H102       29.6083   27.9105   -2.9995 H         1 UNK         0.0767 
    103 H103       28.2439   27.8807   -4.1037 H         1 UNK         0.0767 
    104 H104       30.2745   24.8697   -2.3373 H         1 UNK         0.3013 
    105 H105       28.0901   27.5111    0.8655 H         1 UNK         0.3121 
    106 H106       28.0488   30.3786    1.4202 H         1 UNK         0.0774 
    107 H107       29.6854   30.4507   -0.4647 H         1 UNK         0.0815 
    108 H108       29.7228   28.6930   -0.5104 H         1 UNK         0.0815 
    109 H109       28.2342   29.5674   -0.8912 H         1 UNK         0.0815 
    110 H110       28.6371   29.4987    3.7573 H         1 UNK         0.2987 
    111 H111       31.1760   28.7076    4.5352 H         1 UNK         0.0949 
    112 H112       29.2602   28.6511    6.0527 H         1 UNK         0.0806 
    113 H113       30.4932   29.6595    6.7908 H         1 UNK         0.0806 
    114 H114       29.1030   30.4077    6.0225 H         1 UNK         0.0806 
    115 H115       30.0525   32.0350    4.0011 H         1 UNK         0.3010 
    116 H116       32.3288   33.4211    4.9703 H         1 UNK         0.0829 
    117 H117       30.2758   34.2344    2.8382 H         1 UNK         0.0813 
    118 H118       31.3789   35.3301    3.6584 H         1 UNK         0.0813 
    119 H119       30.1292   34.5081    4.5756 H         1 UNK         0.0813 
    120 H120       31.9653   31.5796    2.0294 H         1 UNK         0.3038 
    121 H121       34.4165   32.7853    0.8165 H         1 UNK         0.0769 
    122 H122       32.3497   32.7592   -0.6170 H         1 UNK         0.0811 
    123 H123       32.2463   31.0090   -0.4244 H         1 UNK         0.0811 
    124 H124       33.6118   31.7272   -1.2667 H         1 UNK         0.0811 
    125 H125       33.7566   30.4704    3.0415 H         1 UNK         0.3204 
    126 H126       35.7967   28.5507    2.0372 H         1 UNK         0.0748 
    127 H127       32.9831   27.8539    3.0537 H         1 UNK         0.0771 
    128 H128       33.6280   27.5623    1.4494 H         1 UNK         0.0771 
    129 H129       34.2902   26.6908    2.8192 H         1 UNK         0.0771 
    130 H130       33.9015   27.9144    4.8746 H         1 UNK         0.2980 
    131 H131       36.2256   27.7788    6.4880 H         1 UNK         0.0545 
    132 H132       34.1058   30.5736    6.0254 H         1 UNK         0.3459 
    133 H133       34.8353   31.4959    7.3255 H         1 UNK         0.3459 
    134 H134       34.6913   27.0437    8.2890 H         1 UNK         0.0616 
    135 H135       34.4334   26.1919    6.7922 H         1 UNK         0.0616 
    136 H136       32.5629   25.3029    8.0380 H         1 UNK         0.0634 
    137 H137       31.2045   26.1897    8.6710 H         1 UNK         0.0634 
@<TRIPOS>BOND
     1    1    2 1    
     2    1   72 1    
     3    1   73 1    
     4    1   74 1    
     5    2    3 2    
     6    2    4 am   BACKBONE|DICT|INTERRES
     7    4    5 1    
     8    4   75 1    
     9    5    6 1    
    10    5   35 1    
    11    5   76 1    
    12    6    7 1    
    13    6   77 1    
    14    6   78 1    
    15    7    8 1    
    16    8    9 1    
    17    8   79 1    
    18    8   80 1    
    19    9   10 ar   
    20    9   14 ar   
    21   10   11 ar   
    22   10   81 1    
    23   11   12 ar   
    24   11   71 1    
    25   12   13 ar   
    26   12   82 1    
    27   13   14 ar   
    28   13   15 1    
    29   14   83 1    
    30   15   16 1    
    31   15   84 1    
    32   15   85 1    
    33   16   17 1    
    34   17   18 1    
    35   17   86 1    
    36   17   87 1    
    37   18   19 1    
    38   18   37 1    
    39   18   88 1    
    40   19   20 am   BACKBONE|DICT|INTERRES
    41   19   89 1    
    42   20   21 2    
    43   20   22 1    
    44   22   23 1    
    45   22   24 1    
    46   22   90 1    
    47   23   91 1    
    48   23   92 1    
    49   23   93 1    
    50   24   25 am   BACKBONE|DICT|INTERRES
    51   24   94 1    
    52   25   26 2    
    53   25   27 1    
    54   27   28 1    
    55   27   29 1    
    56   27   95 1    
    57   28   96 1    
    58   28   97 1    
    59   28   98 1    
    60   29   30 am   BACKBONE|DICT|INTERRES
    61   29   99 1    
    62   30   31 2    
    63   30   32 1    
    64   32   33 1    
    65   32   34 1    
    66   32  100 1    
    67   33  101 1    
    68   33  102 1    
    69   33  103 1    
    70   34   35 am   BACKBONE|DICT|INTERRES
    71   34  104 1    
    72   35   36 2    
    73   37   38 2    
    74   37   39 am   BACKBONE|DICT|INTERRES
    75   39   40 1    
    76   39  105 1    
    77   40   41 1    
    78   40   42 1    
    79   40  106 1    
    80   41  107 1    
    81   41  108 1    
    82   41  109 1    
    83   42   43 2    
    84   42   44 am   BACKBONE|DICT|INTERRES
    85   44   45 1    
    86   44  110 1    
    87   45   46 1    
    88   45   47 1    
    89   45  111 1    
    90   46  112 1    
    91   46  113 1    
    92   46  114 1    
    93   47   48 2    
    94   47   49 am   BACKBONE|DICT|INTERRES
    95   49   50 1    
    96   49  115 1    
    97   50   51 1    
    98   50   52 1    
    99   50  116 1    
   100   51  117 1    
   101   51  118 1    
   102   51  119 1    
   103   52   53 2    
   104   52   54 am   BACKBONE|DICT|INTERRES
   105   54   55 1    
   106   54  120 1    
   107   55   56 1    
   108   55   57 1    
   109   55  121 1    
   110   56  122 1    
   111   56  123 1    
   112   56  124 1    
   113   57   58 2    
   114   57   59 am   BACKBONE|DICT|INTERRES
   115   59   60 1    
   116   59  125 1    
   117   60   61 1    
   118   60   62 1    
   119   60  126 1    
   120   61  127 1    
   121   61  128 1    
   122   61  129 1    
   123   62   63 2    
   124   62   64 am   BACKBONE|DICT|INTERRES
   125   64   65 1    
   126   64  130 1    
   127   65   66 1    
   128   65   69 1    
   129   65  131 1    
   130   66   67 am   BACKBONE|DICT|INTERRES
   131   66   68 2    
   132   67  132 1    
   133   67  133 1    
   134   69   70 1    
   135   69  134 1    
   136   69  135 1    
   137   70   71 1    
   138   71  136 1    
   139   71  137 1    
@<TRIPOS>SUBSTRUCTURE
     1 UNK         1 GROUP             0       ****    0 ROOT    
