@<TRIPOS>MOLECULE
3R136
137   139    1
SMALL
USER_CHARGES


@<TRIPOS>ATOM
      1 CA         29.7570   20.1795   -3.7322 C.3       0 UNK        -0.1979 
      2 C          29.8974   20.4964   -2.2509 C.2       0 UNK         0.4864 
      3 O          28.9496   20.9937   -1.6418 O.2       0 UNK        -0.5359 
      4 N          31.0764   20.2248   -1.6725 N.am      1 UNK        -0.4318 
      5 CA         31.4645   20.4260   -0.2670 C.3       1 UNK         0.0824 
      6 C6         30.5409   19.6866    0.7435 C.3       12 UNK        -0.0944 
      7 S7         31.4005   19.2698    2.2983 S.3       12 UNK        -0.2672 
      8 C8         30.1088   19.5659    3.5561 C.3       12 UNK         0.0333 
      9 C9         29.8201   21.0399    3.8400 C.ar      12 UNK        -0.0807 
     10 C10        30.8587   21.9654    4.0000 C.ar      12 UNK        -0.0894 
     11 C11        30.5878   23.3047    4.3003 C.ar      12 UNK        -0.0804 
     12 C12        29.2576   23.7090    4.4682 C.ar      12 UNK        -0.0824 
     13 C13        28.2084   22.8039    4.2974 C.ar      12 UNK        -0.0762 
     14 C14        28.4964   21.4704    3.9870 C.ar      12 UNK        -0.0782 
     15 C15        26.7666   23.2752    4.4283 C.3       12 UNK         0.0230 
     16 S16        26.2829   24.3694    3.0478 S.3       12 UNK        -0.2608 
     17 C17        26.3435   26.0411    3.7918 C.3       12 UNK        -0.0989 
     18 CA         27.3952   27.0030    3.1601 C.3       5 UNK         0.0716 
     19 N          27.3214   27.0857    1.6914 N.am      5 UNK        -0.4135 
     20 C          26.2898   27.5081    0.9451 C.2       4 UNK         0.5031 
     21 O          25.2253   27.9050    1.4210 O.2       4 UNK        -0.5229 
     22 CA         26.4619   27.4866   -0.5921 C.3       4 UNK         0.0329 
     23 CB         25.8652   28.7494   -1.2503 C.3       4 UNK        -0.2001 
     24 N          27.8346   27.2534   -1.0742 N.am      4 UNK        -0.4303 
     25 C          28.9085   28.0362   -0.8919 C.2       3 UNK         0.5044 
     26 O          28.8984   29.0645   -0.2148 O.2       3 UNK        -0.5152 
     27 CA         30.2331   27.5136   -1.4717 C.3       3 UNK         0.0319 
     28 CB         31.3464   28.5785   -1.4719 C.3       3 UNK        -0.2001 
     29 N          30.6561   26.3749   -0.6600 N.am      3 UNK        -0.4354 
     30 C          30.3772   25.0962   -0.9318 C.2       2 UNK         0.4964 
     31 O          29.8897   24.7007   -1.9933 O.2       2 UNK        -0.5047 
     32 CA         30.5617   24.1307    0.2389 C.3       2 UNK         0.0288 
     33 CB         29.3207   24.2032    1.1387 C.3       2 UNK        -0.2113 
     34 N          30.6805   22.7535   -0.2216 N.am      2 UNK        -0.4145 
     35 C          31.6580   21.9085    0.1176 C.2       1 UNK         0.5006 
     36 O          32.6789   22.2474    0.7197 O.2       1 UNK        -0.5103 
     37 C          27.3803   28.3860    3.8634 C.2       5 UNK         0.5055 
     38 O          27.2372   28.4327    5.0867 O.2       5 UNK        -0.5220 
     39 N          27.5200   29.4864    3.1097 N.am      6 UNK        -0.4450 
     40 CA         27.4619   30.8556    3.6205 C.3       6 UNK         0.0367 
     41 CB         27.1602   31.8120    2.4557 C.3       6 UNK        -0.1929 
     42 C          28.7726   31.2544    4.3106 C.2       6 UNK         0.5070 
     43 O          29.8459   31.0572    3.7358 O.2       6 UNK        -0.5237 
     44 N          28.6743   31.8677    5.4968 N.am      7 UNK        -0.4739 
     45 CA         29.8214   32.3777    6.2589 C.3       7 UNK         0.0276 
     46 CB         29.3497   32.8813    7.6320 C.3       7 UNK        -0.1927 
     47 C          30.5947   33.4781    5.5121 C.2       7 UNK         0.5013 
     48 O          31.8253   33.4808    5.5377 O.2       7 UNK        -0.5193 
     49 N          29.8595   34.3440    4.7993 N.am      8 UNK        -0.4253 
     50 CA         30.3959   35.4064    3.9422 C.3       8 UNK         0.0242 
     51 CB         29.2391   36.3005    3.4668 C.3       8 UNK        -0.2000 
     52 C          31.2054   34.8916    2.7362 C.2       8 UNK         0.4948 
     53 O          32.0571   35.6244    2.2328 O.2       8 UNK        -0.5275 
     54 N          30.9442   33.6486    2.3077 N.am      9 UNK        -0.4246 
     55 CA         31.6748   32.9558    1.2445 C.3       9 UNK         0.0261 
     56 CB         30.6726   32.1514    0.3973 C.3       9 UNK        -0.1959 
     57 C          32.7965   32.0517    1.7938 C.2       9 UNK         0.5033 
     58 O          33.4127   31.3358    1.0035 O.2       9 UNK        -0.5390 
     59 N          33.0440   32.0938    3.1154 N.am      10 UNK        -0.4215 
     60 CA         33.9896   31.2673    3.8749 C.3       10 UNK         0.0240 
     61 CB         35.4487   31.5630    3.4642 C.3       10 UNK        -0.1982 
     62 C          33.6204   29.7750    3.7968 C.2       10 UNK         0.4970 
     63 O          34.4217   28.9595    3.3364 O.2       10 UNK        -0.4916 
     64 N          32.3958   29.4657    4.2422 N.am      11 UNK        -0.4279 
     65 CA         31.7330   28.1601    4.1147 C.3       11 UNK         0.1003 
     66 C          31.2073   27.9330    2.6687 C.2       11 UNK         0.5709 
     67 N          30.5136   28.9171    2.1166 N.am      11 UNK        -0.7358 
     68 O          31.4040   26.8929    2.0469 O.2       11 UNK        -0.4999 
     69 C69        32.5465   26.9819    4.7311 C.3       12 UNK        -0.0954 
     70 S70        31.4711   25.7122    5.4752 S.3       12 UNK        -0.2268 
     71 C71        31.7391   24.3065    4.3430 C.3       12 UNK         0.0203 
     72 H72        29.5343   21.0889   -4.2898 H         1 UNK         0.0888 
     73 H73        30.6660   19.7422   -4.1449 H         1 UNK         0.0888 
     74 H74        28.9407   19.4749   -3.8886 H         1 UNK         0.0888 
     75 H75        31.8123   19.8450   -2.2525 H         1 UNK         0.3017 
     76 H76        32.4531   19.9676   -0.2024 H         1 UNK         0.0873 
     77 H77        30.1950   18.7456    0.3133 H         1 UNK         0.0745 
     78 H78        29.6395   20.2662    0.9540 H         1 UNK         0.0745 
     79 H79        30.4273   19.0989    4.4889 H         1 UNK         0.0705 
     80 H80        29.2008   19.0443    3.2491 H         1 UNK         0.0705 
     81 H81        31.8835   21.6453    3.8693 H         1 UNK         0.1334 
     82 H82        29.0249   24.7407    4.6851 H         1 UNK         0.1417 
     83 H83        27.6863   20.7648    3.8613 H         1 UNK         0.1562 
     84 H84        26.6244   23.7673    5.3908 H         1 UNK         0.0748 
     85 H85        26.0906   22.4189    4.4322 H         1 UNK         0.0748 
     86 H86        26.5230   25.9455    4.8636 H         1 UNK         0.0940 
     87 H87        25.3442   26.4712    3.7048 H         1 UNK         0.0940 
     88 H88        28.3818   26.5927    3.3750 H         1 UNK         0.0703 
     89 H89        28.1525   26.7972    1.1996 H         1 UNK         0.3081 
     90 H90        25.8788   26.6318   -0.9378 H         1 UNK         0.0719 
     91 H91        26.3537   29.6590   -0.8989 H         1 UNK         0.0809 
     92 H92        25.9609   28.7149   -2.3355 H         1 UNK         0.0809 
     93 H93        24.8023   28.8463   -1.0254 H         1 UNK         0.0809 
     94 H94        27.9672   26.4023   -1.6062 H         1 UNK         0.2990 
     95 H95        30.0561   27.2098   -2.5057 H         1 UNK         0.0690 
     96 H96        32.2525   28.1981   -1.9433 H         1 UNK         0.0788 
     97 H97        31.6109   28.9033   -0.4652 H         1 UNK         0.0788 
     98 H98        31.0384   29.4640   -2.0293 H         1 UNK         0.0788 
     99 H99        31.0175   26.5960    0.2674 H         1 UNK         0.2993 
    100 H100       31.4456   24.4223    0.8107 H         1 UNK         0.0949 
    101 H101       28.3924   24.2539    0.5671 H         1 UNK         0.0767 
    102 H102       29.2491   23.3236    1.7741 H         1 UNK         0.0767 
    103 H103       29.3640   25.0736    1.7908 H         1 UNK         0.0767 
    104 H104       29.9073   22.3911   -0.7748 H         1 UNK         0.3013 
    105 H105       27.6930   29.3762    2.1201 H         1 UNK         0.3121 
    106 H106       26.6435   30.9243    4.3405 H         1 UNK         0.0774 
    107 H107       27.1161   32.8472    2.7966 H         1 UNK         0.0815 
    108 H108       27.9206   31.7559    1.6765 H         1 UNK         0.0815 
    109 H109       26.1985   31.5820    1.9966 H         1 UNK         0.0815 
    110 H110       27.7604   31.9937    5.9091 H         1 UNK         0.2987 
    111 H111       30.5108   31.5458    6.4197 H         1 UNK         0.0949 
    112 H112       28.8796   32.0832    8.2069 H         1 UNK         0.0806 
    113 H113       30.1904   33.2498    8.2218 H         1 UNK         0.0806 
    114 H114       28.6324   33.6980    7.5416 H         1 UNK         0.0806 
    115 H115       28.8545   34.2534    4.8368 H         1 UNK         0.3010 
    116 H116       31.0716   36.0124    4.5498 H         1 UNK         0.0829 
    117 H117       28.7087   36.7463    4.3085 H         1 UNK         0.0813 
    118 H118       29.6082   37.1207    2.8491 H         1 UNK         0.0813 
    119 H119       28.5163   35.7432    2.8693 H         1 UNK         0.0813 
    120 H120       30.2575   33.0948    2.8035 H         1 UNK         0.3038 
    121 H121       32.1518   33.6862    0.5877 H         1 UNK         0.0769 
    122 H122       31.1692   31.6555   -0.4375 H         1 UNK         0.0811 
    123 H123       29.9010   32.7953   -0.0244 H         1 UNK         0.0811 
    124 H124       30.1784   31.3776    0.9823 H         1 UNK         0.0811 
    125 H125       32.4846   32.7221    3.6816 H         1 UNK         0.3204 
    126 H126       33.8818   31.5589    4.9209 H         1 UNK         0.0748 
    127 H127       36.1481   31.0194    4.1004 H         1 UNK         0.0771 
    128 H128       35.6530   31.2683    2.4345 H         1 UNK         0.0771 
    129 H129       35.6794   32.6239    3.5610 H         1 UNK         0.0771 
    130 H130       31.7841   30.2234    4.5151 H         1 UNK         0.2980 
    131 H131       30.8300   28.2715    4.7167 H         1 UNK         0.0545 
    132 H132       30.1385   28.8484    1.1787 H         1 UNK         0.3459 
    133 H133       30.3354   29.7616    2.6565 H         1 UNK         0.3459 
    134 H134       33.1801   27.3502    5.5391 H         1 UNK         0.0616 
    135 H135       33.2283   26.5396    4.0028 H         1 UNK         0.0616 
    136 H136       32.6662   23.8088    4.6310 H         1 UNK         0.0634 
    137 H137       31.8879   24.6749    3.3284 H         1 UNK         0.0634 
@<TRIPOS>BOND
     1    1    2 1    
     2    1   72 1    
     3    1   73 1    
     4    1   74 1    
     5    2    3 2    
     6    2    4 am   BACKBONE|DICT|INTERRES
     7    4    5 1    
     8    4   75 1    
     9    5    6 1    
    10    5   35 1    
    11    5   76 1    
    12    6    7 1    
    13    6   77 1    
    14    6   78 1    
    15    7    8 1    
    16    8    9 1    
    17    8   79 1    
    18    8   80 1    
    19    9   10 ar   
    20    9   14 ar   
    21   10   11 ar   
    22   10   81 1    
    23   11   12 ar   
    24   11   71 1    
    25   12   13 ar   
    26   12   82 1    
    27   13   14 ar   
    28   13   15 1    
    29   14   83 1    
    30   15   16 1    
    31   15   84 1    
    32   15   85 1    
    33   16   17 1    
    34   17   18 1    
    35   17   86 1    
    36   17   87 1    
    37   18   19 1    
    38   18   37 1    
    39   18   88 1    
    40   19   20 am   BACKBONE|DICT|INTERRES
    41   19   89 1    
    42   20   21 2    
    43   20   22 1    
    44   22   23 1    
    45   22   24 1    
    46   22   90 1    
    47   23   91 1    
    48   23   92 1    
    49   23   93 1    
    50   24   25 am   BACKBONE|DICT|INTERRES
    51   24   94 1    
    52   25   26 2    
    53   25   27 1    
    54   27   28 1    
    55   27   29 1    
    56   27   95 1    
    57   28   96 1    
    58   28   97 1    
    59   28   98 1    
    60   29   30 am   BACKBONE|DICT|INTERRES
    61   29   99 1    
    62   30   31 2    
    63   30   32 1    
    64   32   33 1    
    65   32   34 1    
    66   32  100 1    
    67   33  101 1    
    68   33  102 1    
    69   33  103 1    
    70   34   35 am   BACKBONE|DICT|INTERRES
    71   34  104 1    
    72   35   36 2    
    73   37   38 2    
    74   37   39 am   BACKBONE|DICT|INTERRES
    75   39   40 1    
    76   39  105 1    
    77   40   41 1    
    78   40   42 1    
    79   40  106 1    
    80   41  107 1    
    81   41  108 1    
    82   41  109 1    
    83   42   43 2    
    84   42   44 am   BACKBONE|DICT|INTERRES
    85   44   45 1    
    86   44  110 1    
    87   45   46 1    
    88   45   47 1    
    89   45  111 1    
    90   46  112 1    
    91   46  113 1    
    92   46  114 1    
    93   47   48 2    
    94   47   49 am   BACKBONE|DICT|INTERRES
    95   49   50 1    
    96   49  115 1    
    97   50   51 1    
    98   50   52 1    
    99   50  116 1    
   100   51  117 1    
   101   51  118 1    
   102   51  119 1    
   103   52   53 2    
   104   52   54 am   BACKBONE|DICT|INTERRES
   105   54   55 1    
   106   54  120 1    
   107   55   56 1    
   108   55   57 1    
   109   55  121 1    
   110   56  122 1    
   111   56  123 1    
   112   56  124 1    
   113   57   58 2    
   114   57   59 am   BACKBONE|DICT|INTERRES
   115   59   60 1    
   116   59  125 1    
   117   60   61 1    
   118   60   62 1    
   119   60  126 1    
   120   61  127 1    
   121   61  128 1    
   122   61  129 1    
   123   62   63 2    
   124   62   64 am   BACKBONE|DICT|INTERRES
   125   64   65 1    
   126   64  130 1    
   127   65   66 1    
   128   65   69 1    
   129   65  131 1    
   130   66   67 am   BACKBONE|DICT|INTERRES
   131   66   68 2    
   132   67  132 1    
   133   67  133 1    
   134   69   70 1    
   135   69  134 1    
   136   69  135 1    
   137   70   71 1    
   138   71  136 1    
   139   71  137 1    
@<TRIPOS>SUBSTRUCTURE
     1 UNK         1 GROUP             0       ****    0 ROOT    
