@<TRIPOS>MOLECULE
3R136
137   139    1
SMALL
USER_CHARGES


@<TRIPOS>ATOM
      1 CA         26.2177   18.4364    1.2230 C.3       0 UNK        -0.1979 
      2 C          26.3039   19.9454    1.3985 C.2       0 UNK         0.4864 
      3 O          25.5196   20.5144    2.1585 O.2       0 UNK        -0.5359 
      4 N          27.2494   20.5907    0.6980 N.am      1 UNK        -0.4318 
      5 CA         27.5080   22.0384    0.7125 C.3       1 UNK         0.0824 
      6 C6         28.0032   22.5454    2.0977 C.3       12 UNK        -0.0944 
      7 S7         29.1723   23.9385    1.9537 S.3       12 UNK        -0.2672 
      8 C8         30.7496   23.1188    2.3673 C.3       12 UNK         0.0333 
      9 C9         31.9113   24.1016    2.3249 C.ar      12 UNK        -0.0807 
     10 C10        32.6665   24.3777    3.4695 C.ar      12 UNK        -0.0894 
     11 C11        33.7160   25.3032    3.4229 C.ar      12 UNK        -0.0804 
     12 C12        33.9860   25.9773    2.2266 C.ar      12 UNK        -0.0824 
     13 C13        33.2480   25.6953    1.0726 C.ar      12 UNK        -0.0762 
     14 C14        32.2358   24.7340    1.1243 C.ar      12 UNK        -0.0782 
     15 C15        33.5543   26.4081   -0.2373 C.3       12 UNK         0.0230 
     16 S16        32.6840   28.0036   -0.3815 S.3       12 UNK        -0.2608 
     17 C17        30.9283   27.4974   -0.4771 C.3       12 UNK        -0.0989 
     18 CA         29.9688   28.1919    0.5244 C.3       5 UNK         0.0716 
     19 N          28.6091   27.6561    0.3951 N.am      5 UNK        -0.4135 
     20 C          27.5074   28.1836    0.9474 C.2       4 UNK         0.5031 
     21 O          27.5275   29.1843    1.6662 O.2       4 UNK        -0.5229 
     22 CA         26.1763   27.4498    0.6930 C.3       4 UNK         0.0329 
     23 CB         24.9596   28.3981    0.7419 C.3       4 UNK        -0.2001 
     24 N          26.1737   26.6351   -0.5304 N.am      4 UNK        -0.4303 
     25 C          26.2807   27.0642   -1.8003 C.2       3 UNK         0.5044 
     26 O          26.3819   28.2502   -2.1147 O.2       3 UNK        -0.5152 
     27 CA         26.3224   26.0008   -2.9181 C.3       3 UNK         0.0319 
     28 CB         27.7333   25.9232   -3.5268 C.3       3 UNK        -0.2001 
     29 N          25.9272   24.6598   -2.4799 N.am      3 UNK        -0.4354 
     30 C          24.6771   24.2848   -2.1736 C.2       2 UNK         0.4964 
     31 O          23.6918   25.0083   -2.3206 O.2       2 UNK        -0.5047 
     32 CA         24.4937   22.8757   -1.5763 C.3       2 UNK         0.0288 
     33 CB         24.0120   21.8934   -2.6567 C.3       2 UNK        -0.2113 
     34 N          25.6838   22.3176   -0.9176 N.am      2 UNK        -0.4145 
     35 C          26.3264   22.8557    0.1327 C.2       1 UNK         0.5006 
     36 O          26.0231   23.9481    0.6175 O.2       1 UNK        -0.5103 
     37 C          30.4499   28.2257    1.9960 C.2       5 UNK         0.5055 
     38 O          31.1470   29.1667    2.3724 O.2       5 UNK        -0.5220 
     39 N          29.9757   27.2852    2.8293 N.am      6 UNK        -0.4450 
     40 CA         30.1724   27.2819    4.2839 C.3       6 UNK         0.0367 
     41 CB         29.5653   26.0047    4.8863 C.3       6 UNK        -0.1929 
     42 C          29.6148   28.5218    5.0153 C.2       6 UNK         0.5070 
     43 O          30.0843   28.8255    6.1118 O.2       6 UNK        -0.5237 
     44 N          28.6255   29.2026    4.4205 N.am      7 UNK        -0.4739 
     45 CA         28.0603   30.4534    4.9261 C.3       7 UNK         0.0276 
     46 CB         26.5257   30.3831    4.8508 C.3       7 UNK        -0.1927 
     47 C          28.5817   31.6640    4.1365 C.2       7 UNK         0.5013 
     48 O          28.8456   32.7039    4.7413 O.2       7 UNK        -0.5193 
     49 N          28.6869   31.5274    2.8063 N.am      8 UNK        -0.4253 
     50 CA         29.0509   32.6121    1.8923 C.3       8 UNK         0.0242 
     51 CB         28.6292   32.2416    0.4612 C.3       8 UNK        -0.2000 
     52 C          30.5379   33.0046    1.9350 C.2       8 UNK         0.4948 
     53 O          30.8383   34.1896    1.7788 O.2       8 UNK        -0.5275 
     54 N          31.4371   32.0299    2.1228 N.am      9 UNK        -0.4246 
     55 CA         32.8831   32.2425    2.2140 C.3       9 UNK         0.0261 
     56 CB         33.6005   31.1656    1.3803 C.3       9 UNK        -0.1959 
     57 C          33.3394   32.1813    3.6781 C.2       9 UNK         0.5033 
     58 O          32.5854   31.7468    4.5533 O.2       9 UNK        -0.5390 
     59 N          34.5954   32.5795    3.9205 N.am      10 UNK        -0.4215 
     60 CA         35.2638   32.5621    5.2276 C.3       10 UNK         0.0240 
     61 CB         36.4492   33.5459    5.1934 C.3       10 UNK        -0.1982 
     62 C          35.6814   31.1423    5.6725 C.2       10 UNK         0.4970 
     63 O          36.8434   30.9159    6.0151 O.2       10 UNK        -0.4916 
     64 N          34.7246   30.2100    5.6478 N.am      11 UNK        -0.4279 
     65 CA         34.8435   28.8356    6.1415 C.3       11 UNK         0.1003 
     66 C          34.9855   28.8095    7.6904 C.2       11 UNK         0.5709 
     67 N          35.9207   28.0330    8.2213 N.am      11 UNK        -0.7358 
     68 O          34.2415   29.4722    8.4116 O.2       11 UNK        -0.4999 
     69 C69        33.6418   28.0013    5.6263 C.3       12 UNK        -0.0954 
     70 S70        33.6998   26.2308    6.0603 S.3       12 UNK        -0.2268 
     71 C71        34.5982   25.5241    4.6454 C.3       12 UNK         0.0203 
     72 H72        26.3642   17.9388    2.1814 H         1 UNK         0.0888 
     73 H73        25.2355   18.1587    0.8413 H         1 UNK         0.0888 
     74 H74        26.9696   18.0616    0.5287 H         1 UNK         0.0888 
     75 H75        27.8598   20.0524    0.0978 H         1 UNK         0.3017 
     76 H76        28.3239   22.1736    0.0005 H         1 UNK         0.0873 
     77 H77        28.5023   21.7383    2.6360 H         1 UNK         0.0745 
     78 H78        27.1692   22.8403    2.7375 H         1 UNK         0.0745 
     79 H79        30.6682   22.6635    3.3555 H         1 UNK         0.0705 
     80 H80        30.9350   22.3085    1.6608 H         1 UNK         0.0705 
     81 H81        32.4465   23.8685    4.3979 H         1 UNK         0.1334 
     82 H82        34.7859   26.7039    2.1842 H         1 UNK         0.1417 
     83 H83        31.6764   24.4856    0.2334 H         1 UNK         0.1562 
     84 H84        33.2937   25.7762   -1.0880 H         1 UNK         0.0748 
     85 H85        34.6277   26.5877   -0.3135 H         1 UNK         0.0748 
     86 H86        30.8439   26.4187   -0.3814 H         1 UNK         0.0940 
     87 H87        30.5934   27.7127   -1.4932 H         1 UNK         0.0940 
     88 H88        29.9135   29.2363    0.2160 H         1 UNK         0.0703 
     89 H89        28.5008   26.8225   -0.1622 H         1 UNK         0.3081 
     90 H90        26.0696   26.7424    1.5168 H         1 UNK         0.0719 
     91 H91        24.0290   27.8585    0.5664 H         1 UNK         0.0809 
     92 H92        24.8761   28.8768    1.7184 H         1 UNK         0.0809 
     93 H93        25.0338   29.1927   -0.0010 H         1 UNK         0.0809 
     94 H94        26.0946   25.6349   -0.3649 H         1 UNK         0.2990 
     95 H95        25.6298   26.3240   -3.6981 H         1 UNK         0.0690 
     96 H96        28.0538   26.8975   -3.8989 H         1 UNK         0.0788 
     97 H97        27.7639   25.2330   -4.3702 H         1 UNK         0.0788 
     98 H98        28.4734   25.5946   -2.7960 H         1 UNK         0.0788 
     99 H99        26.6692   23.9885   -2.3475 H         1 UNK         0.2993 
    100 H100       23.7140   22.9564   -0.8157 H         1 UNK         0.0949 
    101 H101       24.7657   21.7436   -3.4309 H         1 UNK         0.0767 
    102 H102       23.7692   20.9201   -2.2294 H         1 UNK         0.0767 
    103 H103       23.1098   22.2624   -3.1470 H         1 UNK         0.0767 
    104 H104       25.9992   21.4187   -1.2525 H         1 UNK         0.3013 
    105 H105       29.4238   26.5306    2.4464 H         1 UNK         0.3121 
    106 H106       31.2478   27.2579    4.4570 H         1 UNK         0.0774 
    107 H107       28.5033   25.9129    4.6564 H         1 UNK         0.0815 
    108 H108       29.6674   25.9977    5.9724 H         1 UNK         0.0815 
    109 H109       30.0703   25.1134    4.5192 H         1 UNK         0.0815 
    110 H110       28.3057   28.9044    3.5058 H         1 UNK         0.2987 
    111 H111       28.3368   30.6007    5.9726 H         1 UNK         0.0949 
    112 H112       26.1733   30.2437    3.8280 H         1 UNK         0.0806 
    113 H113       26.1383   29.5610    5.4526 H         1 UNK         0.0806 
    114 H114       26.0748   31.3017    5.2287 H         1 UNK         0.0806 
    115 H115       28.3879   30.6524    2.3824 H         1 UNK         0.3010 
    116 H116       28.4767   33.4939    2.1855 H         1 UNK         0.0829 
    117 H117       27.5673   31.9999    0.4083 H         1 UNK         0.0813 
    118 H118       28.8077   33.0719   -0.2234 H         1 UNK         0.0813 
    119 H119       29.1864   31.3858    0.0833 H         1 UNK         0.0813 
    120 H120       31.1254   31.0787    2.3072 H         1 UNK         0.3038 
    121 H121       33.1491   33.2225    1.8123 H         1 UNK         0.0769 
    122 H122       33.4884   30.1724    1.8166 H         1 UNK         0.0811 
    123 H123       34.6697   31.3664    1.3082 H         1 UNK         0.0811 
    124 H124       33.2117   31.1267    0.3626 H         1 UNK         0.0811 
    125 H125       35.1584   32.8870    3.1402 H         1 UNK         0.3204 
    126 H126       34.5572   32.9275    5.9760 H         1 UNK         0.0748 
    127 H127       37.2059   33.2422    4.4688 H         1 UNK         0.0771 
    128 H128       36.1219   34.5535    4.9357 H         1 UNK         0.0771 
    129 H129       36.9359   33.6073    6.1678 H         1 UNK         0.0771 
    130 H130       33.7945   30.5114    5.3694 H         1 UNK         0.2980 
    131 H131       35.7522   28.4159    5.7055 H         1 UNK         0.0545 
    132 H132       36.0187   27.9991    9.2238 H         1 UNK         0.3459 
    133 H133       36.5258   27.4755    7.6392 H         1 UNK         0.3459 
    134 H134       32.7144   28.4095    6.0293 H         1 UNK         0.0616 
    135 H135       33.5610   28.0904    4.5413 H         1 UNK         0.0616 
    136 H136       35.0137   24.5625    4.9493 H         1 UNK         0.0634 
    137 H137       35.4517   26.1601    4.4062 H         1 UNK         0.0634 
@<TRIPOS>BOND
     1    1    2 1    
     2    1   72 1    
     3    1   73 1    
     4    1   74 1    
     5    2    3 2    
     6    2    4 am   BACKBONE|DICT|INTERRES
     7    4    5 1    
     8    4   75 1    
     9    5    6 1    
    10    5   35 1    
    11    5   76 1    
    12    6    7 1    
    13    6   77 1    
    14    6   78 1    
    15    7    8 1    
    16    8    9 1    
    17    8   79 1    
    18    8   80 1    
    19    9   10 ar   
    20    9   14 ar   
    21   10   11 ar   
    22   10   81 1    
    23   11   12 ar   
    24   11   71 1    
    25   12   13 ar   
    26   12   82 1    
    27   13   14 ar   
    28   13   15 1    
    29   14   83 1    
    30   15   16 1    
    31   15   84 1    
    32   15   85 1    
    33   16   17 1    
    34   17   18 1    
    35   17   86 1    
    36   17   87 1    
    37   18   19 1    
    38   18   37 1    
    39   18   88 1    
    40   19   20 am   BACKBONE|DICT|INTERRES
    41   19   89 1    
    42   20   21 2    
    43   20   22 1    
    44   22   23 1    
    45   22   24 1    
    46   22   90 1    
    47   23   91 1    
    48   23   92 1    
    49   23   93 1    
    50   24   25 am   BACKBONE|DICT|INTERRES
    51   24   94 1    
    52   25   26 2    
    53   25   27 1    
    54   27   28 1    
    55   27   29 1    
    56   27   95 1    
    57   28   96 1    
    58   28   97 1    
    59   28   98 1    
    60   29   30 am   BACKBONE|DICT|INTERRES
    61   29   99 1    
    62   30   31 2    
    63   30   32 1    
    64   32   33 1    
    65   32   34 1    
    66   32  100 1    
    67   33  101 1    
    68   33  102 1    
    69   33  103 1    
    70   34   35 am   BACKBONE|DICT|INTERRES
    71   34  104 1    
    72   35   36 2    
    73   37   38 2    
    74   37   39 am   BACKBONE|DICT|INTERRES
    75   39   40 1    
    76   39  105 1    
    77   40   41 1    
    78   40   42 1    
    79   40  106 1    
    80   41  107 1    
    81   41  108 1    
    82   41  109 1    
    83   42   43 2    
    84   42   44 am   BACKBONE|DICT|INTERRES
    85   44   45 1    
    86   44  110 1    
    87   45   46 1    
    88   45   47 1    
    89   45  111 1    
    90   46  112 1    
    91   46  113 1    
    92   46  114 1    
    93   47   48 2    
    94   47   49 am   BACKBONE|DICT|INTERRES
    95   49   50 1    
    96   49  115 1    
    97   50   51 1    
    98   50   52 1    
    99   50  116 1    
   100   51  117 1    
   101   51  118 1    
   102   51  119 1    
   103   52   53 2    
   104   52   54 am   BACKBONE|DICT|INTERRES
   105   54   55 1    
   106   54  120 1    
   107   55   56 1    
   108   55   57 1    
   109   55  121 1    
   110   56  122 1    
   111   56  123 1    
   112   56  124 1    
   113   57   58 2    
   114   57   59 am   BACKBONE|DICT|INTERRES
   115   59   60 1    
   116   59  125 1    
   117   60   61 1    
   118   60   62 1    
   119   60  126 1    
   120   61  127 1    
   121   61  128 1    
   122   61  129 1    
   123   62   63 2    
   124   62   64 am   BACKBONE|DICT|INTERRES
   125   64   65 1    
   126   64  130 1    
   127   65   66 1    
   128   65   69 1    
   129   65  131 1    
   130   66   67 am   BACKBONE|DICT|INTERRES
   131   66   68 2    
   132   67  132 1    
   133   67  133 1    
   134   69   70 1    
   135   69  134 1    
   136   69  135 1    
   137   70   71 1    
   138   71  136 1    
   139   71  137 1    
@<TRIPOS>SUBSTRUCTURE
     1 UNK         1 GROUP             0       ****    0 ROOT    
