@<TRIPOS>MOLECULE
3R136
137   139    1
SMALL
USER_CHARGES


@<TRIPOS>ATOM
      1 CA         26.6166   26.4957    3.3179 C.3       0 UNK        -0.1979 
      2 C          26.6248   25.0388    3.7566 C.2       0 UNK         0.4864 
      3 O          26.3971   24.7523    4.9328 O.2       0 UNK        -0.5359 
      4 N          26.8939   24.1225    2.8227 N.am      1 UNK        -0.4318 
      5 CA         26.9691   22.6791    3.0479 C.3       1 UNK         0.0824 
      6 C6         28.3711   22.2196    3.5457 C.3       12 UNK        -0.0944 
      7 S7         29.7640   22.6778    2.4487 S.3       12 UNK        -0.2672 
      8 C8         30.3845   24.1483    3.3160 C.3       12 UNK         0.0333 
      9 C9         31.5580   24.7815    2.5888 C.ar      12 UNK        -0.0807 
     10 C10        32.8605   24.5875    3.0548 C.ar      12 UNK        -0.0894 
     11 C11        33.9379   25.2313    2.4427 C.ar      12 UNK        -0.0804 
     12 C12        33.6974   26.0541    1.3364 C.ar      12 UNK        -0.0824 
     13 C13        32.4026   26.2527    0.8458 C.ar      12 UNK        -0.0762 
     14 C14        31.3351   25.5950    1.4741 C.ar      12 UNK        -0.0782 
     15 C15        32.2331   27.1994   -0.3462 C.3       12 UNK         0.0230 
     16 S16        30.5346   27.4354   -0.9716 S.3       12 UNK        -0.2608 
     17 C17        29.8021   28.5157    0.3029 C.3       12 UNK        -0.0989 
     18 CA         28.3899   29.0027   -0.1059 C.3       5 UNK         0.0716 
     19 N          27.4814   27.8778   -0.3308 N.am      5 UNK        -0.4135 
     20 C          26.3091   27.9369   -0.9689 C.2       4 UNK         0.5031 
     21 O          25.8561   28.9676   -1.4715 O.2       4 UNK        -0.5229 
     22 CA         25.5369   26.6072   -1.0916 C.3       4 UNK         0.0329 
     23 CB         24.2360   26.7482   -1.9045 C.3       4 UNK        -0.2001 
     24 N          26.3562   25.5457   -1.6878 N.am      4 UNK        -0.4303 
     25 C          27.2624   24.8125   -1.0309 C.2       3 UNK         0.5044 
     26 O          27.5377   24.9762    0.1622 O.2       3 UNK        -0.5152 
     27 CA         27.9972   23.7315   -1.8335 C.3       3 UNK         0.0319 
     28 CB         29.4614   24.1306   -2.0724 C.3       3 UNK        -0.2001 
     29 N          27.9597   22.5014   -1.0525 N.am      3 UNK        -0.4354 
     30 C          27.0953   21.4957   -1.2438 C.2       2 UNK         0.4964 
     31 O          26.3709   21.3847   -2.2335 O.2       2 UNK        -0.5047 
     32 CA         26.9902   20.4590   -0.1091 C.3       2 UNK         0.0288 
     33 CB         27.9776   19.3027   -0.3344 C.3       2 UNK        -0.2113 
     34 N          27.2295   21.0553    1.2092 N.am      2 UNK        -0.4145 
     35 C          26.4424   21.9782    1.7822 C.2       1 UNK         0.5006 
     36 O          25.3417   22.3043    1.3308 O.2       1 UNK        -0.5103 
     37 C          27.8194   29.9658    0.9530 C.2       5 UNK         0.5055 
     38 O          27.1637   29.5212    1.8991 O.2       5 UNK        -0.5220 
     39 N          28.1167   31.2627    0.7954 N.am      6 UNK        -0.4450 
     40 CA         27.8383   32.3037    1.7891 C.3       6 UNK         0.0367 
     41 CB         28.0639   33.6811    1.1447 C.3       6 UNK        -0.1929 
     42 C          28.7419   32.1417    3.0217 C.2       6 UNK         0.5070 
     43 O          29.8295   31.5764    2.9021 O.2       6 UNK        -0.5237 
     44 N          28.3131   32.6797    4.1708 N.am      7 UNK        -0.4739 
     45 CA         28.9806   32.5442    5.4758 C.3       7 UNK         0.0276 
     46 CB         28.1664   33.2997    6.5385 C.3       7 UNK        -0.1927 
     47 C          30.4578   32.9859    5.5211 C.2       7 UNK         0.5013 
     48 O          31.2212   32.4467    6.3219 O.2       7 UNK        -0.5193 
     49 N          30.8376   33.9365    4.6567 N.am      8 UNK        -0.4253 
     50 CA         32.2174   34.3969    4.4822 C.3       8 UNK         0.0242 
     51 CB         32.2020   35.7663    3.7829 C.3       8 UNK        -0.2000 
     52 C          33.1041   33.4081    3.6990 C.2       8 UNK         0.4948 
     53 O          34.3246   33.4524    3.8589 O.2       8 UNK        -0.5275 
     54 N          32.4939   32.5603    2.8596 N.am      9 UNK        -0.4246 
     55 CA         33.1729   31.5848    2.0028 C.3       9 UNK         0.0261 
     56 CB         32.5823   31.6729    0.5853 C.3       9 UNK        -0.1959 
     57 C          33.0534   30.1496    2.5392 C.2       9 UNK         0.5033 
     58 O          33.9404   29.3404    2.2694 O.2       9 UNK        -0.5390 
     59 N          31.9656   29.8499    3.2624 N.am      10 UNK        -0.4215 
     60 CA         31.6547   28.5528    3.8603 C.3       10 UNK         0.0240 
     61 CB         30.1821   28.5478    4.3120 C.3       10 UNK        -0.1982 
     62 C          32.6112   28.1936    5.0110 C.2       10 UNK         0.4970 
     63 O          32.2890   28.4237    6.1774 O.2       10 UNK        -0.4916 
     64 N          33.7666   27.6246    4.6566 N.am      11 UNK        -0.4279 
     65 CA         34.7942   27.0962    5.5660 C.3       11 UNK         0.1003 
     66 C          34.4209   25.8010    6.3521 C.2       11 UNK         0.5709 
     67 N          33.2069   25.2754    6.2502 N.am      11 UNK        -0.7358 
     68 O          35.2452   25.2705    7.0929 O.2       11 UNK        -0.4999 
     69 C69        36.1994   27.0353    4.8928 C.3       12 UNK        -0.0954 
     70 S70        36.3083   26.5627    3.1263 S.3       12 UNK        -0.2268 
     71 C71        35.3566   25.0135    2.9646 C.3       12 UNK         0.0203 
     72 H72        26.9057   26.6090    2.2740 H         1 UNK         0.0888 
     73 H73        25.6216   26.9221    3.4408 H         1 UNK         0.0888 
     74 H74        27.3125   27.0769    3.9220 H         1 UNK         0.0888 
     75 H75        27.0605   24.4133    1.8599 H         1 UNK         0.3017 
     76 H76        26.2481   22.4164    3.8251 H         1 UNK         0.0873 
     77 H77        28.3885   21.1392    3.6997 H         1 UNK         0.0745 
     78 H78        28.5502   22.6411    4.5361 H         1 UNK         0.0745 
     79 H79        30.6708   23.8723    4.3322 H         1 UNK         0.0705 
     80 H80        29.5845   24.8827    3.4113 H         1 UNK         0.0705 
     81 H81        33.0341   23.9400    3.9031 H         1 UNK         0.1334 
     82 H82        34.5269   26.5561    0.8567 H         1 UNK         0.1417 
     83 H83        30.3219   25.7148    1.1186 H         1 UNK         0.1562 
     84 H84        32.8361   26.8179   -1.1712 H         1 UNK         0.0748 
     85 H85        32.6497   28.1745   -0.0887 H         1 UNK         0.0748 
     86 H86        30.4712   29.3625    0.4618 H         1 UNK         0.0940 
     87 H87        29.7630   27.9771    1.2501 H         1 UNK         0.0940 
     88 H88        28.4756   29.5487   -1.0482 H         1 UNK         0.0703 
     89 H89        27.7736   26.9782    0.0325 H         1 UNK         0.3081 
     90 H90        25.2586   26.3083   -0.0784 H         1 UNK         0.0719 
     91 H91        24.4327   27.0535   -2.9331 H         1 UNK         0.0809 
     92 H92        23.6819   25.8098   -1.9323 H         1 UNK         0.0809 
     93 H93        23.5773   27.4967   -1.4620 H         1 UNK         0.0809 
     94 H94        26.2175   25.3756   -2.6738 H         1 UNK         0.2990 
     95 H95        27.5091   23.5916   -2.8003 H         1 UNK         0.0690 
     96 H96        29.9986   23.3554   -2.6189 H         1 UNK         0.0788 
     97 H97        29.9928   24.3075   -1.1359 H         1 UNK         0.0788 
     98 H98        29.5241   25.0458   -2.6623 H         1 UNK         0.0788 
     99 H99        28.4759   22.5262   -0.1842 H         1 UNK         0.2993 
    100 H100       25.9748   20.0564   -0.1211 H         1 UNK         0.0949 
    101 H101       29.0133   19.6451   -0.3163 H         1 UNK         0.0767 
    102 H102       27.8650   18.5309    0.4274 H         1 UNK         0.0767 
    103 H103       27.8075   18.8285   -1.3021 H         1 UNK         0.0767 
    104 H104       28.1238   20.8642    1.6406 H         1 UNK         0.3013 
    105 H105       28.6798   31.5396    0.0050 H         1 UNK         0.3121 
    106 H106       26.7954   32.2184    2.1021 H         1 UNK         0.0774 
    107 H107       27.8298   34.4856    1.8432 H         1 UNK         0.0815 
    108 H108       29.0994   33.8157    0.8286 H         1 UNK         0.0815 
    109 H109       27.4259   33.8198    0.2717 H         1 UNK         0.0815 
    110 H110       27.4206   33.1534    4.1746 H         1 UNK         0.2987 
    111 H111       28.9654   31.4826    5.7308 H         1 UNK         0.0949 
    112 H112       28.1046   34.3659    6.3169 H         1 UNK         0.0806 
    113 H113       27.1504   32.9112    6.6126 H         1 UNK         0.0806 
    114 H114       28.6207   33.1980    7.5254 H         1 UNK         0.0806 
    115 H115       30.1381   34.3297    4.0441 H         1 UNK         0.3010 
    116 H116       32.6654   34.5249    5.4702 H         1 UNK         0.0829 
    117 H117       31.6416   36.5014    4.3609 H         1 UNK         0.0813 
    118 H118       33.2146   36.1548    3.6639 H         1 UNK         0.0813 
    119 H119       31.7569   35.7083    2.7887 H         1 UNK         0.0813 
    120 H120       31.4788   32.5388    2.8386 H         1 UNK         0.3038 
    121 H121       34.2379   31.8172    1.9373 H         1 UNK         0.0769 
    122 H122       33.0265   30.9253   -0.0736 H         1 UNK         0.0811 
    123 H123       32.7731   32.6498    0.1408 H         1 UNK         0.0811 
    124 H124       31.5040   31.5134    0.5854 H         1 UNK         0.0811 
    125 H125       31.2439   30.5622    3.3506 H         1 UNK         0.3204 
    126 H126       31.7647   27.7954    3.0857 H         1 UNK         0.0748 
    127 H127       29.9050   27.5789    4.7292 H         1 UNK         0.0771 
    128 H128       29.9935   29.3010    5.0778 H         1 UNK         0.0771 
    129 H129       29.5057   28.7489    3.4819 H         1 UNK         0.0771 
    130 H130       33.9743   27.5353    3.6688 H         1 UNK         0.2980 
    131 H131       34.8861   27.8382    6.3614 H         1 UNK         0.0545 
    132 H132       32.9837   24.4503    6.7834 H         1 UNK         0.3459 
    133 H133       32.5049   25.7227    5.6858 H         1 UNK         0.3459 
    134 H134       36.6375   28.0329    4.9483 H         1 UNK         0.0616 
    135 H135       36.8901   26.4044    5.4546 H         1 UNK         0.0616 
    136 H136       35.8783   24.3675    2.2576 H         1 UNK         0.0634 
    137 H137       35.3565   24.4818    3.9166 H         1 UNK         0.0634 
@<TRIPOS>BOND
     1    1    2 1    
     2    1   72 1    
     3    1   73 1    
     4    1   74 1    
     5    2    3 2    
     6    2    4 am   BACKBONE|DICT|INTERRES
     7    4    5 1    
     8    4   75 1    
     9    5    6 1    
    10    5   35 1    
    11    5   76 1    
    12    6    7 1    
    13    6   77 1    
    14    6   78 1    
    15    7    8 1    
    16    8    9 1    
    17    8   79 1    
    18    8   80 1    
    19    9   10 ar   
    20    9   14 ar   
    21   10   11 ar   
    22   10   81 1    
    23   11   12 ar   
    24   11   71 1    
    25   12   13 ar   
    26   12   82 1    
    27   13   14 ar   
    28   13   15 1    
    29   14   83 1    
    30   15   16 1    
    31   15   84 1    
    32   15   85 1    
    33   16   17 1    
    34   17   18 1    
    35   17   86 1    
    36   17   87 1    
    37   18   19 1    
    38   18   37 1    
    39   18   88 1    
    40   19   20 am   BACKBONE|DICT|INTERRES
    41   19   89 1    
    42   20   21 2    
    43   20   22 1    
    44   22   23 1    
    45   22   24 1    
    46   22   90 1    
    47   23   91 1    
    48   23   92 1    
    49   23   93 1    
    50   24   25 am   BACKBONE|DICT|INTERRES
    51   24   94 1    
    52   25   26 2    
    53   25   27 1    
    54   27   28 1    
    55   27   29 1    
    56   27   95 1    
    57   28   96 1    
    58   28   97 1    
    59   28   98 1    
    60   29   30 am   BACKBONE|DICT|INTERRES
    61   29   99 1    
    62   30   31 2    
    63   30   32 1    
    64   32   33 1    
    65   32   34 1    
    66   32  100 1    
    67   33  101 1    
    68   33  102 1    
    69   33  103 1    
    70   34   35 am   BACKBONE|DICT|INTERRES
    71   34  104 1    
    72   35   36 2    
    73   37   38 2    
    74   37   39 am   BACKBONE|DICT|INTERRES
    75   39   40 1    
    76   39  105 1    
    77   40   41 1    
    78   40   42 1    
    79   40  106 1    
    80   41  107 1    
    81   41  108 1    
    82   41  109 1    
    83   42   43 2    
    84   42   44 am   BACKBONE|DICT|INTERRES
    85   44   45 1    
    86   44  110 1    
    87   45   46 1    
    88   45   47 1    
    89   45  111 1    
    90   46  112 1    
    91   46  113 1    
    92   46  114 1    
    93   47   48 2    
    94   47   49 am   BACKBONE|DICT|INTERRES
    95   49   50 1    
    96   49  115 1    
    97   50   51 1    
    98   50   52 1    
    99   50  116 1    
   100   51  117 1    
   101   51  118 1    
   102   51  119 1    
   103   52   53 2    
   104   52   54 am   BACKBONE|DICT|INTERRES
   105   54   55 1    
   106   54  120 1    
   107   55   56 1    
   108   55   57 1    
   109   55  121 1    
   110   56  122 1    
   111   56  123 1    
   112   56  124 1    
   113   57   58 2    
   114   57   59 am   BACKBONE|DICT|INTERRES
   115   59   60 1    
   116   59  125 1    
   117   60   61 1    
   118   60   62 1    
   119   60  126 1    
   120   61  127 1    
   121   61  128 1    
   122   61  129 1    
   123   62   63 2    
   124   62   64 am   BACKBONE|DICT|INTERRES
   125   64   65 1    
   126   64  130 1    
   127   65   66 1    
   128   65   69 1    
   129   65  131 1    
   130   66   67 am   BACKBONE|DICT|INTERRES
   131   66   68 2    
   132   67  132 1    
   133   67  133 1    
   134   69   70 1    
   135   69  134 1    
   136   69  135 1    
   137   70   71 1    
   138   71  136 1    
   139   71  137 1    
@<TRIPOS>SUBSTRUCTURE
     1 UNK         1 GROUP             0       ****    0 ROOT    
