@<TRIPOS>MOLECULE
3R136
137   139    1
SMALL
USER_CHARGES


@<TRIPOS>ATOM
      1 CA         24.6419   20.6718    1.5225 C.3       0 UNK        -0.1979 
      2 C          26.1382   20.9205    1.4077 C.2       0 UNK         0.4864 
      3 O          26.8580   20.7743    2.3969 O.2       0 UNK        -0.5359 
      4 N          26.6079   21.3043    0.2113 N.am      1 UNK        -0.4318 
      5 CA         27.9977   21.6290   -0.1385 C.3       1 UNK         0.0824 
      6 C6         28.9906   20.4580    0.1130 C.3       12 UNK        -0.0944 
      7 S7         30.4186   20.4839   -1.0198 S.3       12 UNK        -0.2672 
      8 C8         31.8311   20.6937    0.1234 C.3       12 UNK         0.0333 
      9 C9         32.1016   22.1310    0.5724 C.ar      12 UNK        -0.0807 
     10 C10        32.6885   22.3574    1.8227 C.ar      12 UNK        -0.0894 
     11 C11        33.0177   23.6537    2.2301 C.ar      12 UNK        -0.0804 
     12 C12        32.7542   24.7291    1.3801 C.ar      12 UNK        -0.0824 
     13 C13        32.1289   24.5325    0.1439 C.ar      12 UNK        -0.0762 
     14 C14        31.8289   23.2268   -0.2568 C.ar      12 UNK        -0.0782 
     15 C15        31.7251   25.6829   -0.7812 C.3       12 UNK         0.0230 
     16 S16        32.4555   27.3178   -0.4163 S.3       12 UNK        -0.2608 
     17 C17        31.5051   27.8882    1.0364 C.3       12 UNK        -0.0989 
     18 CA         30.3179   28.7891    0.6255 C.3       5 UNK         0.0716 
     19 N          29.1940   28.0043    0.1151 N.am      5 UNK        -0.4135 
     20 C          28.2783   28.4523   -0.7522 C.2       4 UNK         0.5031 
     21 O          28.2985   29.5745   -1.2578 O.2       4 UNK        -0.5229 
     22 CA         27.1364   27.4846   -1.1076 C.3       4 UNK         0.0329 
     23 CB         27.5310   26.5993   -2.3006 C.3       4 UNK        -0.2001 
     24 N          26.7425   26.6371    0.0211 N.am      4 UNK        -0.4303 
     25 C          26.0901   27.0869    1.1044 C.2       3 UNK         0.5044 
     26 O          25.7165   28.2518    1.2423 O.2       3 UNK        -0.5152 
     27 CA         25.8320   26.0799    2.2414 C.3       3 UNK         0.0319 
     28 CB         24.4732   25.3891    2.0445 C.3       3 UNK        -0.2001 
     29 N          26.8703   25.0569    2.3945 N.am      3 UNK        -0.4354 
     30 C          28.1781   25.2830    2.5888 C.2       2 UNK         0.4964 
     31 O          28.6795   26.4037    2.6584 O.2       2 UNK        -0.5047 
     32 CA         29.0907   24.0513    2.6636 C.3       2 UNK         0.0288 
     33 CB         29.2300   23.5765    4.1174 C.3       2 UNK        -0.2113 
     34 N          28.6421   22.9314    1.8342 N.am      2 UNK        -0.4145 
     35 C          28.4467   22.9535    0.5083 C.2       1 UNK         0.5006 
     36 O          28.5602   23.9647   -0.1877 O.2       1 UNK        -0.5103 
     37 C          29.8624   29.6883    1.7879 C.2       5 UNK         0.5055 
     38 O          30.2359   30.8584    1.8180 O.2       5 UNK        -0.5220 
     39 N          29.0290   29.1574    2.6960 N.am      6 UNK        -0.4450 
     40 CA         28.4898   29.8455    3.8774 C.3       6 UNK         0.0367 
     41 CB         27.6829   28.8463    4.7201 C.3       6 UNK        -0.1929 
     42 C          27.6538   31.1066    3.5842 C.2       6 UNK         0.5070 
     43 O          27.4481   31.9131    4.4911 O.2       6 UNK        -0.5237 
     44 N          27.2151   31.2791    2.3303 N.am      7 UNK        -0.4739 
     45 CA         26.6296   32.5158    1.8073 C.3       7 UNK         0.0276 
     46 CB         26.0195   32.2241    0.4266 C.3       7 UNK        -0.1927 
     47 C          27.6342   33.6861    1.7179 C.2       7 UNK         0.5013 
     48 O          27.2008   34.8367    1.6398 O.2       7 UNK        -0.5193 
     49 N          28.9391   33.3841    1.7255 N.am      8 UNK        -0.4253 
     50 CA         30.0451   34.3348    1.7104 C.3       8 UNK         0.0242 
     51 CB         30.5834   34.4690    0.2701 C.3       8 UNK        -0.2000 
     52 C          31.0841   33.8688    2.7452 C.2       8 UNK         0.4948 
     53 O          30.7706   33.8450    3.9370 O.2       8 UNK        -0.5275 
     54 N          32.2955   33.5151    2.2954 N.am      9 UNK        -0.4246 
     55 CA         33.3764   32.9848    3.1263 C.3       9 UNK         0.0261 
     56 CB         34.7152   33.1680    2.3889 C.3       9 UNK        -0.1959 
     57 C          33.1169   31.5084    3.4748 C.2       9 UNK         0.5033 
     58 O          33.3861   30.6324    2.6501 O.2       9 UNK        -0.5390 
     59 N          32.5870   31.2691    4.6811 N.am      10 UNK        -0.4215 
     60 CA         32.2808   29.9453    5.2315 C.3       10 UNK         0.0240 
     61 CB         31.4926   30.1302    6.5409 C.3       10 UNK        -0.1982 
     62 C          33.5319   29.0785    5.4757 C.2       10 UNK         0.4970 
     63 O          34.6490   29.5994    5.5310 O.2       10 UNK        -0.4916 
     64 N          33.2998   27.7695    5.6390 N.am      11 UNK        -0.4279 
     65 CA         34.3088   26.7273    5.8919 C.3       11 UNK         0.1003 
     66 C          35.2047   27.0119    7.1301 C.2       11 UNK         0.5709 
     67 N          36.4942   26.7131    7.0476 N.am      11 UNK        -0.7358 
     68 O          34.7304   27.4534    8.1756 O.2       11 UNK        -0.4999 
     69 C69        33.6554   25.3246    6.0291 C.3       12 UNK        -0.0954 
     70 S70        32.5522   24.9000    4.6423 S.3       12 UNK        -0.2268 
     71 C71        33.6574   23.9143    3.5858 C.3       12 UNK         0.0203 
     72 H72        24.4565   19.6464    1.8412 H         1 UNK         0.0888 
     73 H73        24.2061   21.3428    2.2622 H         1 UNK         0.0888 
     74 H74        24.1269   20.8305    0.5752 H         1 UNK         0.0888 
     75 H75        25.9497   21.4184   -0.5476 H         1 UNK         0.3017 
     76 H76        27.9696   21.8106   -1.2145 H         1 UNK         0.0873 
     77 H77        28.4839   19.5079   -0.0639 H         1 UNK         0.0745 
     78 H78        29.3247   20.4143    1.1509 H         1 UNK         0.0745 
     79 H79        32.7273   20.3311   -0.3815 H         1 UNK         0.0705 
     80 H80        31.6873   20.0431    0.9875 H         1 UNK         0.0705 
     81 H81        32.9048   21.5214    2.4740 H         1 UNK         0.1334 
     82 H82        33.0228   25.7193    1.7151 H         1 UNK         0.1417 
     83 H83        31.3683   23.0701   -1.2224 H         1 UNK         0.1562 
     84 H84        30.6384   25.7677   -0.7819 H         1 UNK         0.0748 
     85 H85        32.0090   25.4233   -1.8022 H         1 UNK         0.0748 
     86 H86        32.2077   28.4368    1.6673 H         1 UNK         0.0940 
     87 H87        31.1618   27.0439    1.6361 H         1 UNK         0.0940 
     88 H88        30.6616   29.4606   -0.1651 H         1 UNK         0.0703 
     89 H89        29.0639   27.0890    0.5232 H         1 UNK         0.3081 
     90 H90        26.2725   28.0851   -1.4009 H         1 UNK         0.0719 
     91 H91        26.7086   25.9507   -2.6027 H         1 UNK         0.0809 
     92 H92        27.7977   27.2079   -3.1658 H         1 UNK         0.0809 
     93 H93        28.3891   25.9665   -2.0709 H         1 UNK         0.0809 
     94 H94        27.0433   25.6703   -0.0048 H         1 UNK         0.2990 
     95 H95        25.7932   26.6428    3.1749 H         1 UNK         0.0690 
     96 H96        23.6720   26.1238    1.9497 H         1 UNK         0.0788 
     97 H97        24.2246   24.7508    2.8927 H         1 UNK         0.0788 
     98 H98        24.4590   24.7734    1.1441 H         1 UNK         0.0788 
     99 H99        26.5653   24.0959    2.3506 H         1 UNK         0.2993 
    100 H100       30.0741   24.3563    2.3030 H         1 UNK         0.0949 
    101 H101       28.2922   23.1764    4.5050 H         1 UNK         0.0767 
    102 H102       29.9909   22.8006    4.2060 H         1 UNK         0.0767 
    103 H103       29.5298   24.3973    4.7706 H         1 UNK         0.0767 
    104 H104       28.4039   22.0700    2.3158 H         1 UNK         0.3013 
    105 H105       28.8016   28.1662    2.6182 H         1 UNK         0.3121 
    106 H106       29.3441   30.1763    4.4679 H         1 UNK         0.0774 
    107 H107       26.8040   28.4930    4.1817 H         1 UNK         0.0815 
    108 H108       27.3348   29.3066    5.6457 H         1 UNK         0.0815 
    109 H109       28.2829   27.9789    4.9962 H         1 UNK         0.0815 
    110 H110       27.3964   30.5437    1.6615 H         1 UNK         0.2987 
    111 H111       25.8287   32.8244    2.4825 H         1 UNK         0.0949 
    112 H112       26.7783   31.9048   -0.2894 H         1 UNK         0.0806 
    113 H113       25.2631   31.4408    0.4841 H         1 UNK         0.0806 
    114 H114       25.5363   33.1121    0.0168 H         1 UNK         0.0806 
    115 H115       29.2199   32.4093    1.8237 H         1 UNK         0.3010 
    116 H116       29.6987   35.3157    2.0427 H         1 UNK         0.0829 
    117 H117       29.8121   34.8553   -0.3966 H         1 UNK         0.0813 
    118 H118       31.4212   35.1660    0.2214 H         1 UNK         0.0813 
    119 H119       30.9130   33.5108   -0.1344 H         1 UNK         0.0813 
    120 H120       32.4537   33.5145    1.2985 H         1 UNK         0.3038 
    121 H121       33.4275   33.5623    4.0521 H         1 UNK         0.0769 
    122 H122       34.7249   32.6520    1.4278 H         1 UNK         0.0811 
    123 H123       35.5409   32.7695    2.9799 H         1 UNK         0.0811 
    124 H124       34.9265   34.2217    2.2059 H         1 UNK         0.0811 
    125 H125       32.3821   32.0607    5.2740 H         1 UNK         0.3204 
    126 H126       31.6501   29.4273    4.5061 H         1 UNK         0.0748 
    127 H127       32.1046   30.5967    7.3142 H         1 UNK         0.0771 
    128 H128       30.6101   30.7536    6.3959 H         1 UNK         0.0771 
    129 H129       31.1477   29.1729    6.9338 H         1 UNK         0.0771 
    130 H130       32.3491   27.4351    5.5955 H         1 UNK         0.2980 
    131 H131       34.9534   26.7117    5.0111 H         1 UNK         0.0545 
    132 H132       37.0858   26.8753    7.8475 H         1 UNK         0.3459 
    133 H133       36.8909   26.3375    6.2002 H         1 UNK         0.3459 
    134 H134       34.4203   24.5513    6.1221 H         1 UNK         0.0616 
    135 H135       33.0613   25.2722    6.9436 H         1 UNK         0.0616 
    136 H136       33.8996   22.9790    4.0925 H         1 UNK         0.0634 
    137 H137       34.5970   24.4496    3.4416 H         1 UNK         0.0634 
@<TRIPOS>BOND
     1    1    2 1    
     2    1   72 1    
     3    1   73 1    
     4    1   74 1    
     5    2    3 2    
     6    2    4 am   BACKBONE|DICT|INTERRES
     7    4    5 1    
     8    4   75 1    
     9    5    6 1    
    10    5   35 1    
    11    5   76 1    
    12    6    7 1    
    13    6   77 1    
    14    6   78 1    
    15    7    8 1    
    16    8    9 1    
    17    8   79 1    
    18    8   80 1    
    19    9   10 ar   
    20    9   14 ar   
    21   10   11 ar   
    22   10   81 1    
    23   11   12 ar   
    24   11   71 1    
    25   12   13 ar   
    26   12   82 1    
    27   13   14 ar   
    28   13   15 1    
    29   14   83 1    
    30   15   16 1    
    31   15   84 1    
    32   15   85 1    
    33   16   17 1    
    34   17   18 1    
    35   17   86 1    
    36   17   87 1    
    37   18   19 1    
    38   18   37 1    
    39   18   88 1    
    40   19   20 am   BACKBONE|DICT|INTERRES
    41   19   89 1    
    42   20   21 2    
    43   20   22 1    
    44   22   23 1    
    45   22   24 1    
    46   22   90 1    
    47   23   91 1    
    48   23   92 1    
    49   23   93 1    
    50   24   25 am   BACKBONE|DICT|INTERRES
    51   24   94 1    
    52   25   26 2    
    53   25   27 1    
    54   27   28 1    
    55   27   29 1    
    56   27   95 1    
    57   28   96 1    
    58   28   97 1    
    59   28   98 1    
    60   29   30 am   BACKBONE|DICT|INTERRES
    61   29   99 1    
    62   30   31 2    
    63   30   32 1    
    64   32   33 1    
    65   32   34 1    
    66   32  100 1    
    67   33  101 1    
    68   33  102 1    
    69   33  103 1    
    70   34   35 am   BACKBONE|DICT|INTERRES
    71   34  104 1    
    72   35   36 2    
    73   37   38 2    
    74   37   39 am   BACKBONE|DICT|INTERRES
    75   39   40 1    
    76   39  105 1    
    77   40   41 1    
    78   40   42 1    
    79   40  106 1    
    80   41  107 1    
    81   41  108 1    
    82   41  109 1    
    83   42   43 2    
    84   42   44 am   BACKBONE|DICT|INTERRES
    85   44   45 1    
    86   44  110 1    
    87   45   46 1    
    88   45   47 1    
    89   45  111 1    
    90   46  112 1    
    91   46  113 1    
    92   46  114 1    
    93   47   48 2    
    94   47   49 am   BACKBONE|DICT|INTERRES
    95   49   50 1    
    96   49  115 1    
    97   50   51 1    
    98   50   52 1    
    99   50  116 1    
   100   51  117 1    
   101   51  118 1    
   102   51  119 1    
   103   52   53 2    
   104   52   54 am   BACKBONE|DICT|INTERRES
   105   54   55 1    
   106   54  120 1    
   107   55   56 1    
   108   55   57 1    
   109   55  121 1    
   110   56  122 1    
   111   56  123 1    
   112   56  124 1    
   113   57   58 2    
   114   57   59 am   BACKBONE|DICT|INTERRES
   115   59   60 1    
   116   59  125 1    
   117   60   61 1    
   118   60   62 1    
   119   60  126 1    
   120   61  127 1    
   121   61  128 1    
   122   61  129 1    
   123   62   63 2    
   124   62   64 am   BACKBONE|DICT|INTERRES
   125   64   65 1    
   126   64  130 1    
   127   65   66 1    
   128   65   69 1    
   129   65  131 1    
   130   66   67 am   BACKBONE|DICT|INTERRES
   131   66   68 2    
   132   67  132 1    
   133   67  133 1    
   134   69   70 1    
   135   69  134 1    
   136   69  135 1    
   137   70   71 1    
   138   71  136 1    
   139   71  137 1    
@<TRIPOS>SUBSTRUCTURE
     1 UNK         1 GROUP             0       ****    0 ROOT    
