@<TRIPOS>MOLECULE
3R136
137   139    1
SMALL
USER_CHARGES


@<TRIPOS>ATOM
      1 CA         33.3635   22.6643   -3.3177 C.3       0 UNK        -0.1979 
      2 C          32.6742   23.8469   -2.6527 C.2       0 UNK         0.4864 
      3 O          32.7840   24.9725   -3.1416 O.2       0 UNK        -0.5359 
      4 N          31.9738   23.6008   -1.5389 N.am      1 UNK        -0.4318 
      5 CA         31.1836   24.5934   -0.8054 C.3       1 UNK         0.0824 
      6 C6         30.9027   24.1382    0.6498 C.3       12 UNK        -0.0944 
      7 S7         30.0903   22.5070    0.7941 S.3       12 UNK        -0.2672 
      8 C8         30.6480   21.9762    2.4432 C.3       12 UNK         0.0333 
      9 C9         30.0511   22.8409    3.5438 C.ar      12 UNK        -0.0807 
     10 C10        30.7657   23.9329    4.0468 C.ar      12 UNK        -0.0894 
     11 C11        30.2193   24.7318    5.0537 C.ar      12 UNK        -0.0804 
     12 C12        28.9651   24.4159    5.5792 C.ar      12 UNK        -0.0824 
     13 C13        28.2250   23.3486    5.0620 C.ar      12 UNK        -0.0762 
     14 C14        28.7775   22.5578    4.0495 C.ar      12 UNK        -0.0782 
     15 C15        26.8201   23.0697    5.5807 C.3       12 UNK         0.0230 
     16 S16        25.5396   23.8806    4.5612 S.3       12 UNK        -0.2608 
     17 C17        25.9171   25.6482    4.8186 C.3       12 UNK        -0.0989 
     18 CA         26.6609   26.2524    3.5874 C.3       5 UNK         0.0716 
     19 N          25.7671   26.7495    2.5368 N.am      5 UNK        -0.4135 
     20 C          24.8640   27.7389    2.6419 C.2       4 UNK         0.5031 
     21 O          24.6300   28.3417    3.6901 O.2       4 UNK        -0.5229 
     22 CA         24.0891   28.1585    1.3732 C.3       4 UNK         0.0329 
     23 CB         24.4156   29.6157    1.0012 C.3       4 UNK        -0.2001 
     24 N          24.3509   27.3146    0.2069 N.am      4 UNK        -0.4303 
     25 C          23.9182   26.0583    0.0324 C.2       3 UNK         0.5044 
     26 O          23.1270   25.4955    0.7889 O.2       3 UNK        -0.5152 
     27 CA         24.5001   25.2855   -1.1691 C.3       3 UNK         0.0319 
     28 CB         23.4693   25.2066   -2.3069 C.3       3 UNK        -0.2001 
     29 N          25.7576   25.8377   -1.6962 N.am      3 UNK        -0.4354 
     30 C          26.9039   25.9532   -1.0098 C.2       2 UNK         0.4964 
     31 O          27.0323   25.6297    0.1742 O.2       2 UNK        -0.5047 
     32 CA         28.0673   26.6358   -1.7428 C.3       2 UNK         0.0288 
     33 CB         28.0006   28.1588   -1.5361 C.3       2 UNK        -0.2113 
     34 N          29.3503   26.1496   -1.2427 N.am      2 UNK        -0.4145 
     35 C          29.8872   24.9651   -1.5565 C.2       1 UNK         0.5006 
     36 O          29.3948   24.1875   -2.3808 O.2       1 UNK        -0.5103 
     37 C          27.7197   27.3190    3.9337 C.2       5 UNK         0.5055 
     38 O          27.7900   27.7994    5.0667 O.2       5 UNK        -0.5220 
     39 N          28.5359   27.6591    2.9300 N.am      6 UNK        -0.4450 
     40 CA         29.7123   28.5140    3.0398 C.3       6 UNK         0.0367 
     41 CB         29.3327   29.9752    2.7541 C.3       6 UNK        -0.1929 
     42 C          30.7470   28.0000    2.0338 C.2       6 UNK         0.5070 
     43 O          30.3630   27.5221    0.9640 O.2       6 UNK        -0.5237 
     44 N          32.0326   28.1028    2.3835 N.am      7 UNK        -0.4739 
     45 CA         33.1519   27.7509    1.5062 C.3       7 UNK         0.0276 
     46 CB         34.3459   27.3014    2.3636 C.3       7 UNK        -0.1927 
     47 C          33.5415   28.9343    0.6054 C.2       7 UNK         0.5013 
     48 O          33.9206   28.7262   -0.5472 O.2       7 UNK        -0.5193 
     49 N          33.4192   30.1491    1.1498 N.am      8 UNK        -0.4253 
     50 CA         33.6064   31.4260    0.4710 C.3       8 UNK         0.0242 
     51 CB         35.0846   31.8613    0.5682 C.3       8 UNK        -0.2000 
     52 C          32.5991   32.4031    1.0928 C.2       8 UNK         0.4948 
     53 O          31.3972   32.1505    1.0078 O.2       8 UNK        -0.5275 
     54 N          33.0843   33.4653    1.7507 N.am      9 UNK        -0.4246 
     55 CA         32.2698   34.3770    2.5656 C.3       9 UNK         0.0261 
     56 CB         33.0626   35.6703    2.8177 C.3       9 UNK        -0.1959 
     57 C          31.8176   33.7532    3.9032 C.2       9 UNK         0.5033 
     58 O          30.8635   34.2436    4.5084 O.2       9 UNK        -0.5390 
     59 N          32.5088   32.6934    4.3358 N.am      10 UNK        -0.4215 
     60 CA         32.2410   31.8846    5.5200 C.3       10 UNK         0.0240 
     61 CB         32.9164   32.5269    6.7486 C.3       10 UNK        -0.1982 
     62 C          32.7458   30.4594    5.2408 C.2       10 UNK         0.4970 
     63 O          33.0906   30.1505    4.0955 O.2       10 UNK        -0.4916 
     64 N          32.7779   29.6105    6.2747 N.am      11 UNK        -0.4279 
     65 CA         33.3180   28.2397    6.2158 C.3       11 UNK         0.1003 
     66 C          34.8728   28.1476    6.2672 C.2       11 UNK         0.5709 
     67 N          35.5959   29.2354    6.5058 N.am      11 UNK        -0.7358 
     68 O          35.4352   27.0742    6.0696 O.2       11 UNK        -0.4999 
     69 C69        32.6305   27.3252    7.2717 C.3       12 UNK        -0.0954 
     70 S70        32.2978   25.6336    6.6724 S.3       12 UNK        -0.2268 
     71 C71        30.9410   25.9838    5.5183 C.3       12 UNK         0.0203 
     72 H72        33.1949   21.7353   -2.7731 H         1 UNK         0.0888 
     73 H73        34.4382   22.8365   -3.3695 H         1 UNK         0.0888 
     74 H74        32.9890   22.5347   -4.3327 H         1 UNK         0.0888 
     75 H75        31.8820   22.6525   -1.2031 H         1 UNK         0.3017 
     76 H76        31.7819   25.5056   -0.7513 H         1 UNK         0.0873 
     77 H77        30.2906   24.8708    1.1785 H         1 UNK         0.0745 
     78 H78        31.8498   24.1039    1.1897 H         1 UNK         0.0745 
     79 H79        30.3569   20.9357    2.5951 H         1 UNK         0.0705 
     80 H80        31.7381   21.9951    2.4865 H         1 UNK         0.0705 
     81 H81        31.7395   24.1748    3.6435 H         1 UNK         0.1334 
     82 H82        28.5473   25.0337    6.3619 H         1 UNK         0.1417 
     83 H83        28.2102   21.7310    3.6436 H         1 UNK         0.1562 
     84 H84        26.7224   23.3975    6.6170 H         1 UNK         0.0748 
     85 H85        26.6369   21.9942    5.5858 H         1 UNK         0.0748 
     86 H86        26.4915   25.7438    5.7392 H         1 UNK         0.0940 
     87 H87        24.9848   26.1735    5.0249 H         1 UNK         0.0940 
     88 H88        27.2353   25.4486    3.1221 H         1 UNK         0.0703 
     89 H89        25.9261   26.3351    1.6234 H         1 UNK         0.3081 
     90 H90        23.0249   28.0939    1.6094 H         1 UNK         0.0719 
     91 H91        24.1835   30.2924    1.8248 H         1 UNK         0.0809 
     92 H92        25.4724   29.7446    0.7630 H         1 UNK         0.0809 
     93 H93        23.8330   29.9472    0.1414 H         1 UNK         0.0809 
     94 H94        24.9850   27.6882   -0.4833 H         1 UNK         0.2990 
     95 H95        24.7085   24.2704   -0.8245 H         1 UNK         0.0690 
     96 H96        23.8269   24.5811   -3.1251 H         1 UNK         0.0788 
     97 H97        23.2384   26.1928   -2.7119 H         1 UNK         0.0788 
     98 H98        22.5324   24.7712   -1.9561 H         1 UNK         0.0788 
     99 H99        25.7367   26.1512   -2.6566 H         1 UNK         0.2993 
    100 H100       27.9990   26.4162   -2.8107 H         1 UNK         0.0949 
    101 H101       28.0464   28.4262   -0.4791 H         1 UNK         0.0767 
    102 H102       28.8255   28.6621   -2.0410 H         1 UNK         0.0767 
    103 H103       27.0755   28.5724   -1.9396 H         1 UNK         0.0767 
    104 H104       29.7772   26.6981   -0.4957 H         1 UNK         0.3013 
    105 H105       28.4447   27.1980    2.0320 H         1 UNK         0.3121 
    106 H106       30.1270   28.4443    4.0470 H         1 UNK         0.0774 
    107 H107       28.9727   30.1071    1.7328 H         1 UNK         0.0815 
    108 H108       28.5543   30.3241    3.4326 H         1 UNK         0.0815 
    109 H109       30.1935   30.6317    2.8852 H         1 UNK         0.0815 
    110 H110       32.2767   28.5880    3.2399 H         1 UNK         0.2987 
    111 H111       32.8647   26.9175    0.8623 H         1 UNK         0.0949 
    112 H112       34.0851   26.4502    2.9931 H         1 UNK         0.0806 
    113 H113       35.1825   26.9951    1.7343 H         1 UNK         0.0806 
    114 H114       34.7040   28.1010    3.0135 H         1 UNK         0.0806 
    115 H115       33.0984   30.2046    2.1110 H         1 UNK         0.3010 
    116 H116       33.3375   31.3233   -0.5825 H         1 UNK         0.0829 
    117 H117       35.2490   32.8236    0.0816 H         1 UNK         0.0813 
    118 H118       35.7326   31.1414    0.0676 H         1 UNK         0.0813 
    119 H119       35.4244   31.9387    1.6018 H         1 UNK         0.0813 
    120 H120       34.0831   33.6168    1.7564 H         1 UNK         0.3038 
    121 H121       31.3689   34.6324    2.0032 H         1 UNK         0.0769 
    122 H122       33.3329   36.1596    1.8818 H         1 UNK         0.0811 
    123 H123       33.9798   35.4809    3.3768 H         1 UNK         0.0811 
    124 H124       32.4717   36.3833    3.3946 H         1 UNK         0.0811 
    125 H125       33.2373   32.3193    3.7433 H         1 UNK         0.3204 
    126 H126       31.1624   31.8272    5.6806 H         1 UNK         0.0748 
    127 H127       32.6742   31.9929    7.6678 H         1 UNK         0.0771 
    128 H128       34.0025   32.5427    6.6496 H         1 UNK         0.0771 
    129 H129       32.5834   33.5559    6.8870 H         1 UNK         0.0771 
    130 H130       32.4865   29.9333    7.1856 H         1 UNK         0.2980 
    131 H131       33.0637   27.8580    5.2274 H         1 UNK         0.0545 
    132 H132       35.1529   30.1240    6.6696 H         1 UNK         0.3459 
    133 H133       36.6007   29.1608    6.5285 H         1 UNK         0.3459 
    134 H134       31.6715   27.7448    7.5805 H         1 UNK         0.0616 
    135 H135       33.2210   27.2634    8.1878 H         1 UNK         0.0616 
    136 H136       31.3446   26.4938    4.6455 H         1 UNK         0.0634 
    137 H137       30.2356   26.6744    5.9830 H         1 UNK         0.0634 
@<TRIPOS>BOND
     1    1    2 1    
     2    1   72 1    
     3    1   73 1    
     4    1   74 1    
     5    2    3 2    
     6    2    4 am   BACKBONE|DICT|INTERRES
     7    4    5 1    
     8    4   75 1    
     9    5    6 1    
    10    5   35 1    
    11    5   76 1    
    12    6    7 1    
    13    6   77 1    
    14    6   78 1    
    15    7    8 1    
    16    8    9 1    
    17    8   79 1    
    18    8   80 1    
    19    9   10 ar   
    20    9   14 ar   
    21   10   11 ar   
    22   10   81 1    
    23   11   12 ar   
    24   11   71 1    
    25   12   13 ar   
    26   12   82 1    
    27   13   14 ar   
    28   13   15 1    
    29   14   83 1    
    30   15   16 1    
    31   15   84 1    
    32   15   85 1    
    33   16   17 1    
    34   17   18 1    
    35   17   86 1    
    36   17   87 1    
    37   18   19 1    
    38   18   37 1    
    39   18   88 1    
    40   19   20 am   BACKBONE|DICT|INTERRES
    41   19   89 1    
    42   20   21 2    
    43   20   22 1    
    44   22   23 1    
    45   22   24 1    
    46   22   90 1    
    47   23   91 1    
    48   23   92 1    
    49   23   93 1    
    50   24   25 am   BACKBONE|DICT|INTERRES
    51   24   94 1    
    52   25   26 2    
    53   25   27 1    
    54   27   28 1    
    55   27   29 1    
    56   27   95 1    
    57   28   96 1    
    58   28   97 1    
    59   28   98 1    
    60   29   30 am   BACKBONE|DICT|INTERRES
    61   29   99 1    
    62   30   31 2    
    63   30   32 1    
    64   32   33 1    
    65   32   34 1    
    66   32  100 1    
    67   33  101 1    
    68   33  102 1    
    69   33  103 1    
    70   34   35 am   BACKBONE|DICT|INTERRES
    71   34  104 1    
    72   35   36 2    
    73   37   38 2    
    74   37   39 am   BACKBONE|DICT|INTERRES
    75   39   40 1    
    76   39  105 1    
    77   40   41 1    
    78   40   42 1    
    79   40  106 1    
    80   41  107 1    
    81   41  108 1    
    82   41  109 1    
    83   42   43 2    
    84   42   44 am   BACKBONE|DICT|INTERRES
    85   44   45 1    
    86   44  110 1    
    87   45   46 1    
    88   45   47 1    
    89   45  111 1    
    90   46  112 1    
    91   46  113 1    
    92   46  114 1    
    93   47   48 2    
    94   47   49 am   BACKBONE|DICT|INTERRES
    95   49   50 1    
    96   49  115 1    
    97   50   51 1    
    98   50   52 1    
    99   50  116 1    
   100   51  117 1    
   101   51  118 1    
   102   51  119 1    
   103   52   53 2    
   104   52   54 am   BACKBONE|DICT|INTERRES
   105   54   55 1    
   106   54  120 1    
   107   55   56 1    
   108   55   57 1    
   109   55  121 1    
   110   56  122 1    
   111   56  123 1    
   112   56  124 1    
   113   57   58 2    
   114   57   59 am   BACKBONE|DICT|INTERRES
   115   59   60 1    
   116   59  125 1    
   117   60   61 1    
   118   60   62 1    
   119   60  126 1    
   120   61  127 1    
   121   61  128 1    
   122   61  129 1    
   123   62   63 2    
   124   62   64 am   BACKBONE|DICT|INTERRES
   125   64   65 1    
   126   64  130 1    
   127   65   66 1    
   128   65   69 1    
   129   65  131 1    
   130   66   67 am   BACKBONE|DICT|INTERRES
   131   66   68 2    
   132   67  132 1    
   133   67  133 1    
   134   69   70 1    
   135   69  134 1    
   136   69  135 1    
   137   70   71 1    
   138   71  136 1    
   139   71  137 1    
@<TRIPOS>SUBSTRUCTURE
     1 UNK         1 GROUP             0       ****    0 ROOT    
