@<TRIPOS>MOLECULE
3R136
137   139    1
SMALL
USER_CHARGES


@<TRIPOS>ATOM
      1 CA         28.1030   20.0986   -3.3791 C.3       0 UNK        -0.1979 
      2 C          27.9218   21.2029   -2.3487 C.2       0 UNK         0.4864 
      3 O          27.2641   22.2053   -2.6328 O.2       0 UNK        -0.5359 
      4 N          28.4840   21.0239   -1.1462 N.am      1 UNK        -0.4318 
      5 CA         28.4642   21.9767   -0.0255 C.3       1 UNK         0.0824 
      6 C6         29.6466   21.7263    0.9514 C.3       12 UNK        -0.0944 
      7 S7         31.2706   21.7227    0.1157 S.3       12 UNK        -0.2672 
      8 C8         32.4047   22.0780    1.4967 C.3       12 UNK         0.0333 
      9 C9         32.3098   23.5266    1.9529 C.ar      12 UNK        -0.0807 
     10 C10        31.8375   23.8401    3.2318 C.ar      12 UNK        -0.0894 
     11 C11        31.7333   25.1731    3.6431 C.ar      12 UNK        -0.0804 
     12 C12        32.0936   26.1935    2.7582 C.ar      12 UNK        -0.0824 
     13 C13        32.5909   25.8909    1.4880 C.ar      12 UNK        -0.0762 
     14 C14        32.7026   24.5561    1.0927 C.ar      12 UNK        -0.0782 
     15 C15        33.0014   27.0072    0.5408 C.3       12 UNK         0.0230 
     16 S16        31.8171   27.2049   -0.8254 S.3       12 UNK        -0.2608 
     17 C17        30.2869   27.5556    0.1014 C.3       12 UNK        -0.0989 
     18 CA         29.2119   28.2889   -0.7453 C.3       5 UNK         0.0716 
     19 N          27.8940   28.2450   -0.1210 N.am      5 UNK        -0.4135 
     20 C          27.1467   27.1589    0.0871 C.2       4 UNK         0.5031 
     21 O          27.4574   26.0179   -0.2681 O.2       4 UNK        -0.5229 
     22 CA         25.8207   27.3850    0.8182 C.3       4 UNK         0.0329 
     23 CB         24.6939   27.7386   -0.1693 C.3       4 UNK        -0.2001 
     24 N          25.4936   26.1593    1.5349 N.am      4 UNK        -0.4303 
     25 C          24.7114   26.0565    2.6139 C.2       3 UNK         0.5044 
     26 O          24.1451   27.0191    3.1353 O.2       3 UNK        -0.5152 
     27 CA         24.5527   24.6483    3.2285 C.3       3 UNK         0.0319 
     28 CB         23.1947   24.4631    3.9392 C.3       3 UNK        -0.2001 
     29 N          24.8010   23.5455    2.2873 N.am      3 UNK        -0.4354 
     30 C          24.1299   23.2604    1.1616 C.2       2 UNK         0.4964 
     31 O          23.1868   23.9292    0.7355 O.2       2 UNK        -0.5047 
     32 CA         24.6120   22.0224    0.3799 C.3       2 UNK         0.0288 
     33 CB         23.7365   21.7189   -0.8511 C.3       2 UNK        -0.2113 
     34 N          26.0059   22.1349   -0.0583 N.am      2 UNK        -0.4145 
     35 C          27.0961   21.9639    0.7009 C.2       1 UNK         0.5006 
     36 O          27.0380   21.7705    1.9181 O.2       1 UNK        -0.5103 
     37 C          29.5621   29.7750   -0.9308 C.2       5 UNK         0.5055 
     38 O          29.0312   30.6204   -0.2043 O.2       5 UNK        -0.5220 
     39 N          30.4847   30.0690   -1.8555 N.am      6 UNK        -0.4450 
     40 CA         31.0357   31.4102   -2.0800 C.3       6 UNK         0.0367 
     41 CB         31.8817   31.4044   -3.3633 C.3       6 UNK        -0.1929 
     42 C          31.8659   31.9350   -0.8922 C.2       6 UNK         0.5070 
     43 O          31.9215   33.1471   -0.6862 O.2       6 UNK        -0.5237 
     44 N          32.4749   31.0177   -0.1277 N.am      7 UNK        -0.4739 
     45 CA         33.2626   31.3040    1.0748 C.3       7 UNK         0.0276 
     46 CB         34.6726   30.7052    0.9158 C.3       7 UNK        -0.1927 
     47 C          32.5588   30.8108    2.3526 C.2       7 UNK         0.5013 
     48 O          33.2275   30.5700    3.3599 O.2       7 UNK        -0.5193 
     49 N          31.2209   30.6912    2.3230 N.am      8 UNK        -0.4253 
     50 CA         30.3980   30.2760    3.4686 C.3       8 UNK         0.0242 
     51 CB         28.9246   30.1629    3.0499 C.3       8 UNK        -0.2000 
     52 C          30.5384   31.1866    4.7023 C.2       8 UNK         0.4948 
     53 O          30.4575   30.6924    5.8259 O.2       8 UNK        -0.5275 
     54 N          30.7964   32.4826    4.4747 N.am      9 UNK        -0.4246 
     55 CA         31.0820   33.4732    5.5156 C.3       9 UNK         0.0261 
     56 CB         31.0531   34.8802    4.8967 C.3       9 UNK        -0.1959 
     57 C          32.4166   33.2357    6.2489 C.2       9 UNK         0.5033 
     58 O          32.5294   33.6182    7.4144 O.2       9 UNK        -0.5390 
     59 N          33.3961   32.6186    5.5708 N.am      10 UNK        -0.4215 
     60 CA         34.6762   32.2185    6.1597 C.3       10 UNK         0.0240 
     61 CB         35.7638   32.1845    5.0728 C.3       10 UNK        -0.1982 
     62 C          34.5603   30.8573    6.8628 C.2       10 UNK         0.4970 
     63 O          35.1383   30.6822    7.9359 O.2       10 UNK        -0.4916 
     64 N          33.8129   29.9298    6.2496 N.am      11 UNK        -0.4279 
     65 CA         33.4757   28.6104    6.8009 C.3       11 UNK         0.1003 
     66 C          32.6306   28.6905    8.1051 C.2       11 UNK         0.5709 
     67 N          31.5732   29.4916    8.1420 N.am      11 UNK        -0.7358 
     68 O          32.9487   28.0358    9.0953 O.2       11 UNK        -0.4999 
     69 C69        32.8083   27.7402    5.7077 C.3       12 UNK        -0.0954 
     70 S70        32.5881   25.9849    6.1552 S.3       12 UNK        -0.2268 
     71 C71        31.2271   25.5084    5.0397 C.3       12 UNK         0.0203 
     72 H72        28.5979   20.4922   -4.2665 H         1 UNK         0.0888 
     73 H73        28.7039   19.2753   -2.9930 H         1 UNK         0.0888 
     74 H74        27.1333   19.7008   -3.6770 H         1 UNK         0.0888 
     75 H75        29.0018   20.1745   -0.9704 H         1 UNK         0.3017 
     76 H76        28.5862   22.9831   -0.4335 H         1 UNK         0.0873 
     77 H77        29.5302   20.7702    1.4655 H         1 UNK         0.0745 
     78 H78        29.6543   22.4940    1.7273 H         1 UNK         0.0745 
     79 H79        32.1989   21.3904    2.3187 H         1 UNK         0.0705 
     80 H80        33.4267   21.8742    1.1743 H         1 UNK         0.0705 
     81 H81        31.5479   23.0462    3.9069 H         1 UNK         0.1334 
     82 H82        31.9962   27.2259    3.0608 H         1 UNK         0.1417 
     83 H83        33.0730   24.3186    0.1044 H         1 UNK         0.1562 
     84 H84        33.9902   26.7954    0.1312 H         1 UNK         0.0748 
     85 H85        33.0855   27.9504    1.0802 H         1 UNK         0.0748 
     86 H86        30.5190   28.1168    1.0082 H         1 UNK         0.0940 
     87 H87        29.9134   26.5898    0.4443 H         1 UNK         0.0940 
     88 H88        29.1282   27.8218   -1.7289 H         1 UNK         0.0703 
     89 H89        27.5652   29.1588    0.1696 H         1 UNK         0.3081 
     90 H90        25.9504   28.1975    1.5369 H         1 UNK         0.0719 
     91 H91        24.5296   26.9386   -0.8927 H         1 UNK         0.0809 
     92 H92        23.7520   27.9162    0.3500 H         1 UNK         0.0809 
     93 H93        24.9306   28.6444   -0.7288 H         1 UNK         0.0809 
     94 H94        25.9580   25.3346    1.1755 H         1 UNK         0.2990 
     95 H95        25.3315   24.5703    3.9884 H         1 UNK         0.0690 
     96 H96        23.1115   23.4718    4.3845 H         1 UNK         0.0788 
     97 H97        22.3578   24.5946    3.2527 H         1 UNK         0.0788 
     98 H98        23.0704   25.1883    4.7445 H         1 UNK         0.0788 
     99 H99        25.5910   22.9437    2.5074 H         1 UNK         0.2993 
    100 H100       24.5321   21.1700    1.0583 H         1 UNK         0.0949 
    101 H101       22.6913   21.5887   -0.5671 H         1 UNK         0.0767 
    102 H102       23.7794   22.5251   -1.5848 H         1 UNK         0.0767 
    103 H103       24.0527   20.7998   -1.3452 H         1 UNK         0.0767 
    104 H104       26.1636   22.3022   -1.0490 H         1 UNK         0.3013 
    105 H105       30.8859   29.3146   -2.3960 H         1 UNK         0.3121 
    106 H106       30.1993   32.0979   -2.2238 H         1 UNK         0.0774 
    107 H107       32.7275   30.7197   -3.2876 H         1 UNK         0.0815 
    108 H108       32.2843   32.3973   -3.5689 H         1 UNK         0.0815 
    109 H109       31.2880   31.1125   -4.2297 H         1 UNK         0.0815 
    110 H110       32.3694   30.0445   -0.3786 H         1 UNK         0.2987 
    111 H111       33.3806   32.3825    1.1991 H         1 UNK         0.0949 
    112 H112       34.6524   29.6197    0.8320 H         1 UNK         0.0806 
    113 H113       35.1681   31.0980    0.0279 H         1 UNK         0.0806 
    114 H114       35.3050   30.9537    1.7691 H         1 UNK         0.0806 
    115 H115       30.7312   30.9262    1.4691 H         1 UNK         0.3010 
    116 H116       30.7347   29.2821    3.7645 H         1 UNK         0.0829 
    117 H117       28.7854   29.3794    2.3074 H         1 UNK         0.0813 
    118 H118       28.2924   29.9078    3.9019 H         1 UNK         0.0813 
    119 H119       28.5485   31.0972    2.6313 H         1 UNK         0.0813 
    120 H120       30.8277   32.8030    3.5178 H         1 UNK         0.3038 
    121 H121       30.2861   33.4118    6.2611 H         1 UNK         0.0769 
    122 H122       31.8155   34.9997    4.1258 H         1 UNK         0.0811 
    123 H123       31.2349   35.6432    5.6551 H         1 UNK         0.0811 
    124 H124       30.0834   35.0977    4.4485 H         1 UNK         0.0811 
    125 H125       33.2091   32.2865    4.6331 H         1 UNK         0.3204 
    126 H126       34.9742   32.9582    6.9062 H         1 UNK         0.0748 
    127 H127       36.7349   31.9387    5.5045 H         1 UNK         0.0771 
    128 H128       35.5534   31.4394    4.3052 H         1 UNK         0.0771 
    129 H129       35.8638   33.1526    4.5817 H         1 UNK         0.0771 
    130 H130       33.4211   30.1487    5.3410 H         1 UNK         0.2980 
    131 H131       34.4222   28.1338    7.0636 H         1 UNK         0.0545 
    132 H132       31.0314   29.5523    8.9883 H         1 UNK         0.3459 
    133 H133       31.2667   29.9917    7.3099 H         1 UNK         0.3459 
    134 H134       31.8397   28.1640    5.4431 H         1 UNK         0.0616 
    135 H135       33.4180   27.7700    4.8036 H         1 UNK         0.0616 
    136 H136       30.7170   24.6457    5.4709 H         1 UNK         0.0634 
    137 H137       30.4818   26.3034    4.9894 H         1 UNK         0.0634 
@<TRIPOS>BOND
     1    1    2 1    
     2    1   72 1    
     3    1   73 1    
     4    1   74 1    
     5    2    3 2    
     6    2    4 am   BACKBONE|DICT|INTERRES
     7    4    5 1    
     8    4   75 1    
     9    5    6 1    
    10    5   35 1    
    11    5   76 1    
    12    6    7 1    
    13    6   77 1    
    14    6   78 1    
    15    7    8 1    
    16    8    9 1    
    17    8   79 1    
    18    8   80 1    
    19    9   10 ar   
    20    9   14 ar   
    21   10   11 ar   
    22   10   81 1    
    23   11   12 ar   
    24   11   71 1    
    25   12   13 ar   
    26   12   82 1    
    27   13   14 ar   
    28   13   15 1    
    29   14   83 1    
    30   15   16 1    
    31   15   84 1    
    32   15   85 1    
    33   16   17 1    
    34   17   18 1    
    35   17   86 1    
    36   17   87 1    
    37   18   19 1    
    38   18   37 1    
    39   18   88 1    
    40   19   20 am   BACKBONE|DICT|INTERRES
    41   19   89 1    
    42   20   21 2    
    43   20   22 1    
    44   22   23 1    
    45   22   24 1    
    46   22   90 1    
    47   23   91 1    
    48   23   92 1    
    49   23   93 1    
    50   24   25 am   BACKBONE|DICT|INTERRES
    51   24   94 1    
    52   25   26 2    
    53   25   27 1    
    54   27   28 1    
    55   27   29 1    
    56   27   95 1    
    57   28   96 1    
    58   28   97 1    
    59   28   98 1    
    60   29   30 am   BACKBONE|DICT|INTERRES
    61   29   99 1    
    62   30   31 2    
    63   30   32 1    
    64   32   33 1    
    65   32   34 1    
    66   32  100 1    
    67   33  101 1    
    68   33  102 1    
    69   33  103 1    
    70   34   35 am   BACKBONE|DICT|INTERRES
    71   34  104 1    
    72   35   36 2    
    73   37   38 2    
    74   37   39 am   BACKBONE|DICT|INTERRES
    75   39   40 1    
    76   39  105 1    
    77   40   41 1    
    78   40   42 1    
    79   40  106 1    
    80   41  107 1    
    81   41  108 1    
    82   41  109 1    
    83   42   43 2    
    84   42   44 am   BACKBONE|DICT|INTERRES
    85   44   45 1    
    86   44  110 1    
    87   45   46 1    
    88   45   47 1    
    89   45  111 1    
    90   46  112 1    
    91   46  113 1    
    92   46  114 1    
    93   47   48 2    
    94   47   49 am   BACKBONE|DICT|INTERRES
    95   49   50 1    
    96   49  115 1    
    97   50   51 1    
    98   50   52 1    
    99   50  116 1    
   100   51  117 1    
   101   51  118 1    
   102   51  119 1    
   103   52   53 2    
   104   52   54 am   BACKBONE|DICT|INTERRES
   105   54   55 1    
   106   54  120 1    
   107   55   56 1    
   108   55   57 1    
   109   55  121 1    
   110   56  122 1    
   111   56  123 1    
   112   56  124 1    
   113   57   58 2    
   114   57   59 am   BACKBONE|DICT|INTERRES
   115   59   60 1    
   116   59  125 1    
   117   60   61 1    
   118   60   62 1    
   119   60  126 1    
   120   61  127 1    
   121   61  128 1    
   122   61  129 1    
   123   62   63 2    
   124   62   64 am   BACKBONE|DICT|INTERRES
   125   64   65 1    
   126   64  130 1    
   127   65   66 1    
   128   65   69 1    
   129   65  131 1    
   130   66   67 am   BACKBONE|DICT|INTERRES
   131   66   68 2    
   132   67  132 1    
   133   67  133 1    
   134   69   70 1    
   135   69  134 1    
   136   69  135 1    
   137   70   71 1    
   138   71  136 1    
   139   71  137 1    
@<TRIPOS>SUBSTRUCTURE
     1 UNK         1 GROUP             0       ****    0 ROOT    
