@<TRIPOS>MOLECULE
3R136
137   139    1
SMALL
USER_CHARGES


@<TRIPOS>ATOM
      1 CA         30.7464   23.4976    7.1749 C.3       0 UNK        -0.1979 
      2 C          30.8374   22.5207    6.0116 C.2       0 UNK         0.4864 
      3 O          31.6232   21.5738    6.0687 O.2       0 UNK        -0.5359 
      4 N          30.0401   22.7426    4.9627 N.am      1 UNK        -0.4318 
      5 CA         29.9668   21.9139    3.7593 C.3       1 UNK         0.0824 
      6 C6         31.1521   22.1922    2.7932 C.3       12 UNK        -0.0944 
      7 S7         31.3616   20.9446    1.4632 S.3       12 UNK        -0.2672 
      8 C8         32.4775   21.7692    0.2699 C.3       12 UNK         0.0333 
      9 C9         32.0883   23.2208    0.0392 C.ar      12 UNK        -0.0807 
     10 C10        32.8110   24.2358    0.6722 C.ar      12 UNK        -0.0894 
     11 C11        32.3583   25.5551    0.6312 C.ar      12 UNK        -0.0804 
     12 C12        31.2021   25.8635   -0.0872 C.ar      12 UNK        -0.0824 
     13 C13        30.4994   24.8655   -0.7685 C.ar      12 UNK        -0.0762 
     14 C14        30.9516   23.5433   -0.7094 C.ar      12 UNK        -0.0782 
     15 C15        29.2180   25.2185   -1.5065 C.3       12 UNK         0.0230 
     16 S16        29.5162   26.4621   -2.7960 S.3       12 UNK        -0.2608 
     17 C17        28.0037   27.4861   -2.6799 C.3       12 UNK        -0.0989 
     18 CA         28.0997   28.7969   -1.8417 C.3       5 UNK         0.0716 
     19 N          27.7795   28.5883   -0.4214 N.am      5 UNK        -0.4135 
     20 C          27.2633   29.5414    0.3675 C.2       4 UNK         0.5031 
     21 O          26.9734   30.6657   -0.0461 O.2       4 UNK        -0.5229 
     22 CA         27.0364   29.2005    1.8562 C.3       4 UNK         0.0329 
     23 CB         26.2555   30.3044    2.5955 C.3       4 UNK        -0.2001 
     24 N          26.3319   27.9386    2.0803 N.am      4 UNK        -0.4303 
     25 C          26.8417   26.7080    1.9699 C.2       3 UNK         0.5044 
     26 O          27.9866   26.4853    1.5713 O.2       3 UNK        -0.5152 
     27 CA         25.9120   25.5677    2.4307 C.3       3 UNK         0.0319 
     28 CB         24.4762   25.7041    1.8731 C.3       3 UNK        -0.2001 
     29 N          26.4446   24.2276    2.1724 N.am      3 UNK        -0.4354 
     30 C          26.6437   23.6254    0.9930 C.2       2 UNK         0.4964 
     31 O          26.3895   24.1403   -0.0975 O.2       2 UNK        -0.5047 
     32 CA         27.1954   22.1850    1.0554 C.3       2 UNK         0.0288 
     33 CB         27.4167   21.5704   -0.3398 C.3       2 UNK        -0.2113 
     34 N          28.4409   22.0769    1.8213 N.am      2 UNK        -0.4145 
     35 C          28.5575   22.0997    3.1553 C.2       1 UNK         0.5006 
     36 O          27.5914   22.2559    3.9080 O.2       1 UNK        -0.5103 
     37 C          29.4202   29.5794   -2.0460 C.2       5 UNK         0.5055 
     38 O          29.6331   30.1187   -3.1337 O.2       5 UNK        -0.5220 
     39 N          30.2832   29.6205   -1.0209 N.am      6 UNK        -0.4450 
     40 CA         31.6221   30.2020   -1.0480 C.3       6 UNK         0.0367 
     41 CB         32.5797   29.2615   -1.8132 C.3       6 UNK        -0.1929 
     42 C          32.0994   30.4496    0.3921 C.2       6 UNK         0.5070 
     43 O          31.3463   30.2075    1.3407 O.2       6 UNK        -0.5237 
     44 N          33.3512   30.9168    0.5174 N.am      7 UNK        -0.4739 
     45 CA         34.1139   31.1295    1.7573 C.3       7 UNK         0.0276 
     46 CB         34.4319   29.7809    2.4359 C.3       7 UNK        -0.1927 
     47 C          33.4547   32.1274    2.7253 C.2       7 UNK         0.5013 
     48 O          33.4242   31.8839    3.9319 O.2       7 UNK        -0.5193 
     49 N          32.9023   33.2202    2.1758 N.am      8 UNK        -0.4253 
     50 CA         32.1990   34.2967    2.8924 C.3       8 UNK         0.0242 
     51 CB         33.2046   35.1557    3.6891 C.3       8 UNK        -0.2000 
     52 C          31.0305   33.7891    3.7661 C.2       8 UNK         0.4948 
     53 O          30.7804   34.3391    4.8396 O.2       8 UNK        -0.5275 
     54 N          30.3625   32.7281    3.2884 N.am      9 UNK        -0.4246 
     55 CA         29.2645   31.9880    3.9163 C.3       9 UNK         0.0261 
     56 CB         28.0729   32.9120    4.2552 C.3       9 UNK        -0.1959 
     57 C          29.6699   31.1050    5.1126 C.2       9 UNK         0.5033 
     58 O          28.7801   30.5163    5.7299 O.2       9 UNK        -0.5390 
     59 N          30.9736   30.9647    5.4088 N.am      10 UNK        -0.4215 
     60 CA         31.4811   30.1464    6.5211 C.3       10 UNK         0.0240 
     61 CB         32.9915   30.3731    6.6906 C.3       10 UNK        -0.1982 
     62 C          31.1811   28.6425    6.3801 C.2       10 UNK         0.4970 
     63 O          31.0837   27.9507    7.3943 O.2       10 UNK        -0.4916 
     64 N          31.0236   28.1735    5.1369 N.am      11 UNK        -0.4279 
     65 CA         30.6027   26.8069    4.8016 C.3       11 UNK         0.1003 
     66 C          29.0866   26.5257    5.0177 C.2       11 UNK         0.5709 
     67 N          28.2532   27.5129    5.3311 N.am      11 UNK        -0.7358 
     68 O          28.6649   25.3746    4.9242 O.2       11 UNK        -0.4999 
     69 C69        31.0510   26.4208    3.3724 C.3       12 UNK        -0.0954 
     70 S70        32.8685   26.3894    3.2150 S.3       12 UNK        -0.2268 
     71 C71        33.0781   26.6328    1.4234 C.3       12 UNK         0.0203 
     72 H72        31.6440   24.1138    7.2191 H         1 UNK         0.0888 
     73 H73        29.8833   24.1568    7.0863 H         1 UNK         0.0888 
     74 H74        30.6578   22.9553    8.1159 H         1 UNK         0.0888 
     75 H75        29.3830   23.5201    4.9802 H         1 UNK         0.3017 
     76 H76        30.0185   20.8686    4.0710 H         1 UNK         0.0873 
     77 H77        31.0259   23.1907    2.3788 H         1 UNK         0.0745 
     78 H78        32.0912   22.2201    3.3478 H         1 UNK         0.0745 
     79 H79        33.5017   21.7008    0.6402 H         1 UNK         0.0705 
     80 H80        32.4566   21.2260   -0.6759 H         1 UNK         0.0705 
     81 H81        33.6811   23.9910    1.2663 H         1 UNK         0.1334 
     82 H82        30.8331   26.8790   -0.1025 H         1 UNK         0.1417 
     83 H83        30.3956   22.7569   -1.2002 H         1 UNK         0.1562 
     84 H84        28.5003   25.6001   -0.7831 H         1 UNK         0.0748 
     85 H85        28.7613   24.3377   -1.9598 H         1 UNK         0.0748 
     86 H86        27.1664   26.8736   -2.3402 H         1 UNK         0.0940 
     87 H87        27.7493   27.7558   -3.7065 H         1 UNK         0.0940 
     88 H88        27.3197   29.4494   -2.2415 H         1 UNK         0.0703 
     89 H89        27.9944   27.6855   -0.0080 H         1 UNK         0.3081 
     90 H90        28.0259   29.1250    2.3124 H         1 UNK         0.0719 
     91 H91        26.6898   31.2885    2.4233 H         1 UNK         0.0809 
     92 H92        25.2185   30.3558    2.2618 H         1 UNK         0.0809 
     93 H93        26.2555   30.1346    3.6727 H         1 UNK         0.0809 
     94 H94        25.3743   28.0228    2.3880 H         1 UNK         0.2990 
     95 H95        25.8562   25.6475    3.5173 H         1 UNK         0.0690 
     96 H96        23.8629   24.8456    2.1477 H         1 UNK         0.0788 
     97 H97        24.4689   25.7825    0.7852 H         1 UNK         0.0788 
     98 H98        23.9727   26.5871    2.2671 H         1 UNK         0.0788 
     99 H99        26.7376   23.7098    2.9968 H         1 UNK         0.2993 
    100 H100       26.4354   21.5834    1.5589 H         1 UNK         0.0949 
    101 H101       27.7683   20.5408   -0.2702 H         1 UNK         0.0767 
    102 H102       26.4876   21.5551   -0.9112 H         1 UNK         0.0767 
    103 H103       28.1448   22.1362   -0.9198 H         1 UNK         0.0767 
    104 H104       29.2910   21.9496    1.2870 H         1 UNK         0.3013 
    105 H105       30.0147   29.2467   -0.1200 H         1 UNK         0.3121 
    106 H106       31.5764   31.1689   -1.5532 H         1 UNK         0.0774 
    107 H107       32.6832   28.2983   -1.3126 H         1 UNK         0.0815 
    108 H108       33.5776   29.6897   -1.9084 H         1 UNK         0.0815 
    109 H109       32.2259   29.0679   -2.8259 H         1 UNK         0.0815 
    110 H110       33.8644   31.1050   -0.3332 H         1 UNK         0.2987 
    111 H111       35.0636   31.5800    1.4645 H         1 UNK         0.0949 
    112 H112       33.5312   29.3105    2.8306 H         1 UNK         0.0806 
    113 H113       34.9034   29.0856    1.7421 H         1 UNK         0.0806 
    114 H114       35.1175   29.9152    3.2734 H         1 UNK         0.0806 
    115 H115       32.9580   33.3190    1.1713 H         1 UNK         0.3010 
    116 H116       31.7494   34.9349    2.1300 H         1 UNK         0.0829 
    117 H117       33.6553   34.5935    4.5079 H         1 UNK         0.0813 
    118 H118       34.0088   35.5208    3.0504 H         1 UNK         0.0813 
    119 H119       32.7173   36.0292    4.1240 H         1 UNK         0.0813 
    120 H120       30.6961   32.3274    2.4205 H         1 UNK         0.3038 
    121 H121       28.9322   31.2887    3.1500 H         1 UNK         0.0769 
    122 H122       27.2090   32.3361    4.5880 H         1 UNK         0.0811 
    123 H123       28.3108   33.6090    5.0587 H         1 UNK         0.0811 
    124 H124       27.7599   33.4925    3.3875 H         1 UNK         0.0811 
    125 H125       31.6701   31.4501    4.8497 H         1 UNK         0.3204 
    126 H126       30.9838   30.4912    7.4301 H         1 UNK         0.0748 
    127 H127       33.3684   29.8490    7.5698 H         1 UNK         0.0771 
    128 H128       33.5523   30.0071    5.8295 H         1 UNK         0.0771 
    129 H129       33.2244   31.4306    6.8182 H         1 UNK         0.0771 
    130 H130       31.1337   28.8089    4.3613 H         1 UNK         0.2980 
    131 H131       31.1142   26.1317    5.4901 H         1 UNK         0.0545 
    132 H132       28.5801   28.4643    5.4505 H         1 UNK         0.3459 
    133 H133       27.2839   27.2969    5.4929 H         1 UNK         0.3459 
    134 H134       30.6795   25.4319    3.0992 H         1 UNK         0.0616 
    135 H135       30.6325   27.1176    2.6435 H         1 UNK         0.0616 
    136 H136       34.1412   26.6172    1.1807 H         1 UNK         0.0634 
    137 H137       32.7105   27.6229    1.1540 H         1 UNK         0.0634 
@<TRIPOS>BOND
     1    1    2 1    
     2    1   72 1    
     3    1   73 1    
     4    1   74 1    
     5    2    3 2    
     6    2    4 am   BACKBONE|DICT|INTERRES
     7    4    5 1    
     8    4   75 1    
     9    5    6 1    
    10    5   35 1    
    11    5   76 1    
    12    6    7 1    
    13    6   77 1    
    14    6   78 1    
    15    7    8 1    
    16    8    9 1    
    17    8   79 1    
    18    8   80 1    
    19    9   10 ar   
    20    9   14 ar   
    21   10   11 ar   
    22   10   81 1    
    23   11   12 ar   
    24   11   71 1    
    25   12   13 ar   
    26   12   82 1    
    27   13   14 ar   
    28   13   15 1    
    29   14   83 1    
    30   15   16 1    
    31   15   84 1    
    32   15   85 1    
    33   16   17 1    
    34   17   18 1    
    35   17   86 1    
    36   17   87 1    
    37   18   19 1    
    38   18   37 1    
    39   18   88 1    
    40   19   20 am   BACKBONE|DICT|INTERRES
    41   19   89 1    
    42   20   21 2    
    43   20   22 1    
    44   22   23 1    
    45   22   24 1    
    46   22   90 1    
    47   23   91 1    
    48   23   92 1    
    49   23   93 1    
    50   24   25 am   BACKBONE|DICT|INTERRES
    51   24   94 1    
    52   25   26 2    
    53   25   27 1    
    54   27   28 1    
    55   27   29 1    
    56   27   95 1    
    57   28   96 1    
    58   28   97 1    
    59   28   98 1    
    60   29   30 am   BACKBONE|DICT|INTERRES
    61   29   99 1    
    62   30   31 2    
    63   30   32 1    
    64   32   33 1    
    65   32   34 1    
    66   32  100 1    
    67   33  101 1    
    68   33  102 1    
    69   33  103 1    
    70   34   35 am   BACKBONE|DICT|INTERRES
    71   34  104 1    
    72   35   36 2    
    73   37   38 2    
    74   37   39 am   BACKBONE|DICT|INTERRES
    75   39   40 1    
    76   39  105 1    
    77   40   41 1    
    78   40   42 1    
    79   40  106 1    
    80   41  107 1    
    81   41  108 1    
    82   41  109 1    
    83   42   43 2    
    84   42   44 am   BACKBONE|DICT|INTERRES
    85   44   45 1    
    86   44  110 1    
    87   45   46 1    
    88   45   47 1    
    89   45  111 1    
    90   46  112 1    
    91   46  113 1    
    92   46  114 1    
    93   47   48 2    
    94   47   49 am   BACKBONE|DICT|INTERRES
    95   49   50 1    
    96   49  115 1    
    97   50   51 1    
    98   50   52 1    
    99   50  116 1    
   100   51  117 1    
   101   51  118 1    
   102   51  119 1    
   103   52   53 2    
   104   52   54 am   BACKBONE|DICT|INTERRES
   105   54   55 1    
   106   54  120 1    
   107   55   56 1    
   108   55   57 1    
   109   55  121 1    
   110   56  122 1    
   111   56  123 1    
   112   56  124 1    
   113   57   58 2    
   114   57   59 am   BACKBONE|DICT|INTERRES
   115   59   60 1    
   116   59  125 1    
   117   60   61 1    
   118   60   62 1    
   119   60  126 1    
   120   61  127 1    
   121   61  128 1    
   122   61  129 1    
   123   62   63 2    
   124   62   64 am   BACKBONE|DICT|INTERRES
   125   64   65 1    
   126   64  130 1    
   127   65   66 1    
   128   65   69 1    
   129   65  131 1    
   130   66   67 am   BACKBONE|DICT|INTERRES
   131   66   68 2    
   132   67  132 1    
   133   67  133 1    
   134   69   70 1    
   135   69  134 1    
   136   69  135 1    
   137   70   71 1    
   138   71  136 1    
   139   71  137 1    
@<TRIPOS>SUBSTRUCTURE
     1 UNK         1 GROUP             0       ****    0 ROOT    
