@<TRIPOS>MOLECULE
3R136
137   139    1
SMALL
USER_CHARGES


@<TRIPOS>ATOM
      1 CA         26.9170   28.0844    2.7538 C.3       0 UNK        -0.1979 
      2 C          26.1889   26.8116    3.1540 C.2       0 UNK         0.4864 
      3 O          25.5573   26.7750    4.2111 O.2       0 UNK        -0.5359 
      4 N          26.2702   25.7723    2.3184 N.am      1 UNK        -0.4318 
      5 CA         25.6150   24.4787    2.5239 C.3       1 UNK         0.0824 
      6 C6         26.3496   23.5836    3.5668 C.3       12 UNK        -0.0944 
      7 S7         27.9955   22.9991    3.0322 S.3       12 UNK        -0.2672 
      8 C8         29.0818   24.1917    3.8761 C.3       12 UNK         0.0333 
      9 C9         30.4666   24.2130    3.2495 C.ar      12 UNK        -0.0807 
     10 C10        31.5967   23.8351    3.9791 C.ar      12 UNK        -0.0894 
     11 C11        32.8654   23.8734    3.3895 C.ar      12 UNK        -0.0804 
     12 C12        32.9971   24.2803    2.0569 C.ar      12 UNK        -0.0824 
     13 C13        31.8735   24.6756    1.3251 C.ar      12 UNK        -0.0762 
     14 C14        30.6156   24.6349    1.9281 C.ar      12 UNK        -0.0782 
     15 C15        32.0026   25.1242   -0.1224 C.3       12 UNK         0.0230 
     16 S16        32.5468   26.8539   -0.2818 S.3       12 UNK        -0.2608 
     17 C17        31.1459   27.8102    0.3994 C.3       12 UNK        -0.0989 
     18 CA         30.2078   28.3954   -0.6971 C.3       5 UNK         0.0716 
     19 N          29.5025   27.3712   -1.4834 N.am      5 UNK        -0.4135 
     20 C          28.5623   26.5256   -1.0349 C.2       4 UNK         0.5031 
     21 O          28.2366   26.4184    0.1497 O.2       4 UNK        -0.5229 
     22 CA         27.8118   25.6746   -2.0726 C.3       4 UNK         0.0329 
     23 CB         28.2352   25.8890   -3.5456 C.3       4 UNK        -0.2001 
     24 N          27.8074   24.2643   -1.6724 N.am      4 UNK        -0.4303 
     25 C          28.7886   23.3565   -1.7992 C.2       3 UNK         0.5044 
     26 O          29.8456   23.5696   -2.3927 O.2       3 UNK        -0.5152 
     27 CA         28.5777   21.9666   -1.1583 C.3       3 UNK         0.0319 
     28 CB         29.7385   21.6091   -0.2131 C.3       3 UNK        -0.2001 
     29 N          27.3182   21.8430   -0.4204 N.am      3 UNK        -0.4354 
     30 C          26.1194   21.6016   -0.9704 C.2       2 UNK         0.4964 
     31 O          25.9522   21.3648   -2.1668 O.2       2 UNK        -0.5047 
     32 CA         24.8925   21.6697   -0.0384 C.3       2 UNK         0.0288 
     33 CB         24.4663   20.2565    0.3913 C.3       2 UNK        -0.2113 
     34 N          25.0897   22.4971    1.1595 N.am      2 UNK        -0.4145 
     35 C          25.3687   23.8097    1.1563 C.2       1 UNK         0.5006 
     36 O          25.4569   24.4754    0.1208 O.2       1 UNK        -0.5103 
     37 C          29.2127   29.4706   -0.1843 C.2       5 UNK         0.5055 
     38 O          28.1996   29.7173   -0.8455 O.2       5 UNK        -0.5220 
     39 N          29.5077   30.1181    0.9497 N.am      6 UNK        -0.4450 
     40 CA         28.6544   31.1098    1.5989 C.3       6 UNK         0.0367 
     41 CB         28.8873   32.5031    0.9881 C.3       6 UNK        -0.1929 
     42 C          28.9839   31.1051    3.0918 C.2       6 UNK         0.5070 
     43 O          30.1520   30.9430    3.4491 O.2       6 UNK        -0.5237 
     44 N          27.9677   31.3051    3.9395 N.am      7 UNK        -0.4739 
     45 CA         28.0882   31.2471    5.4023 C.3       7 UNK         0.0276 
     46 CB         26.6878   31.3076    6.0328 C.3       7 UNK        -0.1927 
     47 C          28.9999   32.3343    5.9982 C.2       7 UNK         0.5013 
     48 O          29.6651   32.0807    7.0024 O.2       7 UNK        -0.5193 
     49 N          29.0319   33.5102    5.3562 N.am      8 UNK        -0.4253 
     50 CA         29.9155   34.6231    5.7118 C.3       8 UNK         0.0242 
     51 CB         29.3811   35.9171    5.0762 C.3       8 UNK        -0.2000 
     52 C          31.3786   34.3854    5.2956 C.2       8 UNK         0.4948 
     53 O          32.2800   34.9115    5.9493 O.2       8 UNK        -0.5275 
     54 N          31.5892   33.6165    4.2181 N.am      9 UNK        -0.4246 
     55 CA         32.9113   33.2724    3.6915 C.3       9 UNK         0.0261 
     56 CB         32.8061   33.0274    2.1766 C.3       9 UNK        -0.1959 
     57 C          33.5149   32.0403    4.3838 C.2       9 UNK         0.5033 
     58 O          34.7388   31.9660    4.5029 O.2       9 UNK        -0.5390 
     59 N          32.6516   31.1009    4.7999 N.am      10 UNK        -0.4215 
     60 CA         32.9664   29.7463    5.2637 C.3       10 UNK         0.0240 
     61 CB         33.8604   29.7549    6.5254 C.3       10 UNK        -0.1982 
     62 C          33.5054   28.8936    4.0986 C.2       10 UNK         0.4970 
     63 O          33.1072   29.1255    2.9556 O.2       10 UNK        -0.4916 
     64 N          34.3578   27.9055    4.3940 N.am      11 UNK        -0.4279 
     65 CA         34.9481   27.0022    3.3971 C.3       11 UNK         0.1003 
     66 C          35.8853   27.7511    2.4107 C.2       11 UNK         0.5709 
     67 N          35.6425   27.6512    1.1111 N.am      11 UNK        -0.7358 
     68 O          36.8548   28.3877    2.8191 O.2       11 UNK        -0.4999 
     69 C69        35.6940   25.8118    4.0563 C.3       12 UNK        -0.0954 
     70 S70        34.6772   24.8559    5.2330 S.3       12 UNK        -0.2268 
     71 C71        34.0879   23.4756    4.2018 C.3       12 UNK         0.0203 
     72 H72        26.4002   28.9560    3.1535 H         1 UNK         0.0888 
     73 H73        27.9338   28.0754    3.1454 H         1 UNK         0.0888 
     74 H74        26.9639   28.1908    1.6704 H         1 UNK         0.0888 
     75 H75        26.7852   25.8613    1.4444 H         1 UNK         0.3017 
     76 H76        24.6155   24.6813    2.9146 H         1 UNK         0.0873 
     77 H77        25.7446   22.7095    3.8117 H         1 UNK         0.0745 
     78 H78        26.4510   24.1209    4.5110 H         1 UNK         0.0745 
     79 H79        28.6562   25.1933    3.8100 H         1 UNK         0.0705 
     80 H80        29.1321   23.9426    4.9371 H         1 UNK         0.0705 
     81 H81        31.4935   23.5186    5.0081 H         1 UNK         0.1334 
     82 H82        33.9743   24.3061    1.5943 H         1 UNK         0.1417 
     83 H83        29.7396   24.9199    1.3659 H         1 UNK         0.1562 
     84 H84        31.0543   25.0067   -0.6423 H         1 UNK         0.0748 
     85 H85        32.7132   24.4796   -0.6416 H         1 UNK         0.0748 
     86 H86        31.6138   28.6142    0.9652 H         1 UNK         0.0940 
     87 H87        30.5878   27.2238    1.1278 H         1 UNK         0.0940 
     88 H88        30.8401   28.9262   -1.4104 H         1 UNK         0.0703 
     89 H89        29.6766   27.3954   -2.4769 H         1 UNK         0.3081 
     90 H90        26.7703   25.9914   -2.0000 H         1 UNK         0.0719 
     91 H91        29.2938   25.6899   -3.7136 H         1 UNK         0.0809 
     92 H92        27.6687   25.2387   -4.2123 H         1 UNK         0.0809 
     93 H93        28.0393   26.9140   -3.8628 H         1 UNK         0.0809 
     94 H94        26.9979   24.0066   -1.1178 H         1 UNK         0.2990 
     95 H95        28.5772   21.2410   -1.9743 H         1 UNK         0.0690 
     96 H96        29.6310   20.5989    0.1820 H         1 UNK         0.0788 
     97 H97        29.7956   22.2931    0.6326 H         1 UNK         0.0788 
     98 H98        30.6982   21.6512   -0.7300 H         1 UNK         0.0788 
     99 H99        27.3614   22.0258    0.5729 H         1 UNK         0.2993 
    100 H100       24.0782   22.1146   -0.6145 H         1 UNK         0.0949 
    101 H101       23.5436   20.2786    0.9717 H         1 UNK         0.0767 
    102 H102       24.2841   19.6221   -0.4776 H         1 UNK         0.0767 
    103 H103       25.2333   19.7696    0.9952 H         1 UNK         0.0767 
    104 H104       25.0430   22.0172    2.0468 H         1 UNK         0.3013 
    105 H105       30.3372   29.8795    1.4804 H         1 UNK         0.3121 
    106 H106       27.6074   30.8269    1.4704 H         1 UNK         0.0774 
    107 H107       28.2710   33.2562    1.4807 H         1 UNK         0.0815 
    108 H108       29.9269   32.8177    1.0810 H         1 UNK         0.0815 
    109 H109       28.6289   32.5188   -0.0708 H         1 UNK         0.0815 
    110 H110       27.0411   31.4615    3.5681 H         1 UNK         0.2987 
    111 H111       28.5335   30.2825    5.6575 H         1 UNK         0.0949 
    112 H112       26.1725   32.2371    5.7875 H         1 UNK         0.0806 
    113 H113       26.0652   30.4779    5.6972 H         1 UNK         0.0806 
    114 H114       26.7468   31.2452    7.1205 H         1 UNK         0.0806 
    115 H115       28.4335   33.6321    4.5522 H         1 UNK         0.3010 
    116 H116       29.8976   34.7443    6.7973 H         1 UNK         0.0829 
    117 H117       28.3697   36.1389    5.4174 H         1 UNK         0.0813 
    118 H118       30.0059   36.7700    5.3456 H         1 UNK         0.0813 
    119 H119       29.3639   35.8577    3.9872 H         1 UNK         0.0813 
    120 H120       30.7949   33.1845    3.7682 H         1 UNK         0.3038 
    121 H121       33.5900   34.1133    3.8509 H         1 UNK         0.0769 
    122 H122       33.7892   32.8277    1.7481 H         1 UNK         0.0811 
    123 H123       32.3972   33.8951    1.6590 H         1 UNK         0.0811 
    124 H124       32.1754   32.1672    1.9482 H         1 UNK         0.0811 
    125 H125       31.6816   31.2211    4.5178 H         1 UNK         0.3204 
    126 H126       32.0089   29.3034    5.5414 H         1 UNK         0.0748 
    127 H127       33.8924   28.7708    6.9941 H         1 UNK         0.0771 
    128 H128       34.8869   30.0465    6.3005 H         1 UNK         0.0771 
    129 H129       33.4752   30.4486    7.2730 H         1 UNK         0.0771 
    130 H130       34.6507   27.7694    5.3492 H         1 UNK         0.2980 
    131 H131       34.1153   26.5968    2.8225 H         1 UNK         0.0545 
    132 H132       34.8212   27.1734    0.7701 H         1 UNK         0.3459 
    133 H133       36.2531   28.1216    0.4623 H         1 UNK         0.3459 
    134 H134       36.5673   26.1722    4.6031 H         1 UNK         0.0616 
    135 H135       36.0801   25.1364    3.2909 H         1 UNK         0.0616 
    136 H136       33.8321   22.6396    4.8544 H         1 UNK         0.0634 
    137 H137       34.8892   23.1175    3.5539 H         1 UNK         0.0634 
@<TRIPOS>BOND
     1    1    2 1    
     2    1   72 1    
     3    1   73 1    
     4    1   74 1    
     5    2    3 2    
     6    2    4 am   BACKBONE|DICT|INTERRES
     7    4    5 1    
     8    4   75 1    
     9    5    6 1    
    10    5   35 1    
    11    5   76 1    
    12    6    7 1    
    13    6   77 1    
    14    6   78 1    
    15    7    8 1    
    16    8    9 1    
    17    8   79 1    
    18    8   80 1    
    19    9   10 ar   
    20    9   14 ar   
    21   10   11 ar   
    22   10   81 1    
    23   11   12 ar   
    24   11   71 1    
    25   12   13 ar   
    26   12   82 1    
    27   13   14 ar   
    28   13   15 1    
    29   14   83 1    
    30   15   16 1    
    31   15   84 1    
    32   15   85 1    
    33   16   17 1    
    34   17   18 1    
    35   17   86 1    
    36   17   87 1    
    37   18   19 1    
    38   18   37 1    
    39   18   88 1    
    40   19   20 am   BACKBONE|DICT|INTERRES
    41   19   89 1    
    42   20   21 2    
    43   20   22 1    
    44   22   23 1    
    45   22   24 1    
    46   22   90 1    
    47   23   91 1    
    48   23   92 1    
    49   23   93 1    
    50   24   25 am   BACKBONE|DICT|INTERRES
    51   24   94 1    
    52   25   26 2    
    53   25   27 1    
    54   27   28 1    
    55   27   29 1    
    56   27   95 1    
    57   28   96 1    
    58   28   97 1    
    59   28   98 1    
    60   29   30 am   BACKBONE|DICT|INTERRES
    61   29   99 1    
    62   30   31 2    
    63   30   32 1    
    64   32   33 1    
    65   32   34 1    
    66   32  100 1    
    67   33  101 1    
    68   33  102 1    
    69   33  103 1    
    70   34   35 am   BACKBONE|DICT|INTERRES
    71   34  104 1    
    72   35   36 2    
    73   37   38 2    
    74   37   39 am   BACKBONE|DICT|INTERRES
    75   39   40 1    
    76   39  105 1    
    77   40   41 1    
    78   40   42 1    
    79   40  106 1    
    80   41  107 1    
    81   41  108 1    
    82   41  109 1    
    83   42   43 2    
    84   42   44 am   BACKBONE|DICT|INTERRES
    85   44   45 1    
    86   44  110 1    
    87   45   46 1    
    88   45   47 1    
    89   45  111 1    
    90   46  112 1    
    91   46  113 1    
    92   46  114 1    
    93   47   48 2    
    94   47   49 am   BACKBONE|DICT|INTERRES
    95   49   50 1    
    96   49  115 1    
    97   50   51 1    
    98   50   52 1    
    99   50  116 1    
   100   51  117 1    
   101   51  118 1    
   102   51  119 1    
   103   52   53 2    
   104   52   54 am   BACKBONE|DICT|INTERRES
   105   54   55 1    
   106   54  120 1    
   107   55   56 1    
   108   55   57 1    
   109   55  121 1    
   110   56  122 1    
   111   56  123 1    
   112   56  124 1    
   113   57   58 2    
   114   57   59 am   BACKBONE|DICT|INTERRES
   115   59   60 1    
   116   59  125 1    
   117   60   61 1    
   118   60   62 1    
   119   60  126 1    
   120   61  127 1    
   121   61  128 1    
   122   61  129 1    
   123   62   63 2    
   124   62   64 am   BACKBONE|DICT|INTERRES
   125   64   65 1    
   126   64  130 1    
   127   65   66 1    
   128   65   69 1    
   129   65  131 1    
   130   66   67 am   BACKBONE|DICT|INTERRES
   131   66   68 2    
   132   67  132 1    
   133   67  133 1    
   134   69   70 1    
   135   69  134 1    
   136   69  135 1    
   137   70   71 1    
   138   71  136 1    
   139   71  137 1    
@<TRIPOS>SUBSTRUCTURE
     1 UNK         1 GROUP             0       ****    0 ROOT    
