@<TRIPOS>MOLECULE
3R136
137   139    1
SMALL
USER_CHARGES


@<TRIPOS>ATOM
      1 CA         29.1321   19.2179    4.2583 C.3       0 UNK        -0.1979 
      2 C          28.2662   19.8154    3.1587 C.2       0 UNK         0.4864 
      3 O          27.1793   19.3019    2.8881 O.2       0 UNK        -0.5359 
      4 N          28.7420   20.8914    2.5198 N.am      1 UNK        -0.4318 
      5 CA         28.0251   21.6283    1.4758 C.3       1 UNK         0.0824 
      6 C6         28.9655   22.5637    0.6779 C.3       12 UNK        -0.0944 
      7 S7         30.2406   21.6606   -0.2600 S.3       12 UNK        -0.2672 
      8 C8         31.7386   21.9565    0.7369 C.3       12 UNK         0.0333 
      9 C9         32.1334   23.4278    0.7927 C.ar      12 UNK        -0.0807 
     10 C10        32.1726   24.1038    2.0160 C.ar      12 UNK        -0.0894 
     11 C11        32.5708   25.4436    2.0874 C.ar      12 UNK        -0.0804 
     12 C12        32.9171   26.1110    0.9033 C.ar      12 UNK        -0.0824 
     13 C13        32.8967   25.4422   -0.3252 C.ar      12 UNK        -0.0762 
     14 C14        32.5038   24.1021   -0.3729 C.ar      12 UNK        -0.0782 
     15 C15        33.3635   26.1347   -1.5977 C.3       12 UNK         0.0230 
     16 S16        31.9966   26.4525   -2.7566 S.3       12 UNK        -0.2608 
     17 C17        31.4469   28.1185   -2.2577 C.3       12 UNK        -0.0989 
     18 CA         29.9028   28.2016   -2.1108 C.3       5 UNK         0.0716 
     19 N          29.3925   27.3327   -1.0393 N.am      5 UNK        -0.4135 
     20 C          29.5451   27.5121    0.2823 C.2       4 UNK         0.5031 
     21 O          30.1629   28.4578    0.7729 O.2       4 UNK        -0.5229 
     22 CA         28.8070   26.5112    1.1971 C.3       4 UNK         0.0329 
     23 CB         28.6397   27.0369    2.6355 C.3       4 UNK        -0.2001 
     24 N          27.4989   26.0808    0.6761 N.am      4 UNK        -0.4303 
     25 C          26.4860   26.8619    0.2626 C.2       3 UNK         0.5044 
     26 O          26.5375   28.0915    0.2167 O.2       3 UNK        -0.5152 
     27 CA         25.2145   26.1527   -0.2330 C.3       3 UNK         0.0319 
     28 CB         25.2287   26.0558   -1.7674 C.3       3 UNK        -0.2001 
     29 N          25.0426   24.8112    0.3328 N.am      3 UNK        -0.4354 
     30 C          24.5650   24.5642    1.5619 C.2       2 UNK         0.4964 
     31 O          24.1983   25.4393    2.3463 O.2       2 UNK        -0.5047 
     32 CA         24.4937   23.0877    1.9875 C.3       2 UNK         0.0288 
     33 CB         23.2167   22.4254    1.4441 C.3       2 UNK        -0.2113 
     34 N          25.6677   22.3213    1.5571 N.am      2 UNK        -0.4145 
     35 C          26.8843   22.4499    2.1045 C.2       1 UNK         0.5006 
     36 O          27.1371   23.2090    3.0431 O.2       1 UNK        -0.5103 
     37 C          29.4002   29.6665   -2.0144 C.2       5 UNK         0.5055 
     38 O          30.0454   30.5628   -2.5615 O.2       5 UNK        -0.5220 
     39 N          28.2749   29.8927   -1.3128 N.am      6 UNK        -0.4450 
     40 CA         27.7177   31.1942   -0.9214 C.3       6 UNK         0.0367 
     41 CB         27.2361   31.9894   -2.1537 C.3       6 UNK        -0.1929 
     42 C          28.6550   32.0146   -0.0062 C.2       6 UNK         0.5070 
     43 O          28.5262   33.2382    0.0553 O.2       6 UNK        -0.5237 
     44 N          29.5681   31.3344    0.6997 N.am      7 UNK        -0.4739 
     45 CA         30.5684   31.9122    1.5965 C.3       7 UNK         0.0276 
     46 CB         31.9608   31.7451    0.9583 C.3       7 UNK        -0.1927 
     47 C          30.4806   31.2514    2.9811 C.2       7 UNK         0.5013 
     48 O          31.5121   31.0397    3.6198 O.2       7 UNK        -0.5193 
     49 N          29.2503   30.9297    3.4129 N.am      8 UNK        -0.4253 
     50 CA         28.9188   30.2376    4.6628 C.3       8 UNK         0.0242 
     51 CB         27.3913   30.1987    4.8308 C.3       8 UNK        -0.2000 
     52 C          29.5815   30.8649    5.9005 C.2       8 UNK         0.4948 
     53 O          29.6175   32.0922    6.0212 O.2       8 UNK        -0.5275 
     54 N          30.1277   30.0043    6.7695 N.am      9 UNK        -0.4246 
     55 CA         30.9613   30.2957    7.9448 C.3       9 UNK         0.0261 
     56 CB         30.2344   31.1865    8.9718 C.3       9 UNK        -0.1959 
     57 C          32.3543   30.8553    7.5988 C.2       9 UNK         0.5033 
     58 O          33.3369   30.3968    8.1830 O.2       9 UNK        -0.5390 
     59 N          32.4356   31.7965    6.6478 N.am      10 UNK        -0.4215 
     60 CA         33.6791   32.4018    6.1580 C.3       10 UNK         0.0240 
     61 CB         33.3564   33.5579    5.1973 C.3       10 UNK        -0.1982 
     62 C          34.6351   31.3878    5.5039 C.2       10 UNK         0.4970 
     63 O          35.8469   31.5014    5.6933 O.2       10 UNK        -0.4916 
     64 N          34.0811   30.4000    4.7883 N.am      11 UNK        -0.4279 
     65 CA         34.8107   29.2357    4.2625 C.3       11 UNK         0.1003 
     66 C          35.2889   28.2067    5.3328 C.2       11 UNK         0.5709 
     67 N          34.9401   28.3394    6.6081 N.am      11 UNK        -0.7358 
     68 O          36.0106   27.2700    4.9987 O.2       11 UNK        -0.4999 
     69 C69        34.0554   28.5605    3.0862 C.3       12 UNK        -0.0954 
     70 S70        32.4089   27.8984    3.5250 S.3       12 UNK        -0.2268 
     71 C71        32.6757   26.0953    3.4698 C.3       12 UNK         0.0203 
     72 H72        28.6001   19.2418    5.2090 H         1 UNK         0.0888 
     73 H73        29.3699   18.1802    4.0261 H         1 UNK         0.0888 
     74 H74        30.0692   19.7609    4.3803 H         1 UNK         0.0888 
     75 H75        29.6235   21.2886    2.8066 H         1 UNK         0.3017 
     76 H76        27.5947   20.9020    0.7824 H         1 UNK         0.0873 
     77 H77        28.3974   23.1461   -0.0498 H         1 UNK         0.0745 
     78 H78        29.4378   23.2873    1.3431 H         1 UNK         0.0745 
     79 H79        31.5872   21.5532    1.7388 H         1 UNK         0.0705 
     80 H80        32.5627   21.3881    0.3036 H         1 UNK         0.0705 
     81 H81        31.9133   23.5768    2.9241 H         1 UNK         0.1334 
     82 H82        33.2275   27.1445    0.9298 H         1 UNK         0.1417 
     83 H83        32.4941   23.5794   -1.3200 H         1 UNK         0.1562 
     84 H84        34.0930   25.4940   -2.0954 H         1 UNK         0.0748 
     85 H85        33.8896   27.0639   -1.3733 H         1 UNK         0.0748 
     86 H86        31.8088   28.8056   -3.0246 H         1 UNK         0.0940 
     87 H87        31.9334   28.4200   -1.3283 H         1 UNK         0.0940 
     88 H88        29.4639   27.8210   -3.0344 H         1 UNK         0.0703 
     89 H89        28.8606   26.5325   -1.3477 H         1 UNK         0.3081 
     90 H90        29.4420   25.6262    1.2400 H         1 UNK         0.0719 
     91 H91        29.6072   27.2497    3.0880 H         1 UNK         0.0809 
     92 H92        28.0565   27.9574    2.6577 H         1 UNK         0.0809 
     93 H93        28.1406   26.3047    3.2705 H         1 UNK         0.0809 
     94 H94        27.3364   25.0857    0.6726 H         1 UNK         0.2990 
     95 H95        24.3615   26.7692    0.0591 H         1 UNK         0.0690 
     96 H96        24.3008   25.6259   -2.1453 H         1 UNK         0.0788 
     97 H97        26.0548   25.4424   -2.1295 H         1 UNK         0.0788 
     98 H98        25.3325   27.0431   -2.2203 H         1 UNK         0.0788 
     99 H99        25.2872   24.0295   -0.2575 H         1 UNK         0.2993 
    100 H100       24.4500   23.0620    3.0791 H         1 UNK         0.0949 
    101 H101       22.3281   22.9697    1.7675 H         1 UNK         0.0767 
    102 H102       23.2033   22.3985    0.3537 H         1 UNK         0.0767 
    103 H103       23.1167   21.4020    1.8065 H         1 UNK         0.0767 
    104 H104       25.5320   21.6613    0.8043 H         1 UNK         0.3013 
    105 H105       27.8069   29.0977   -0.8845 H         1 UNK         0.3121 
    106 H106       26.8388   30.9676   -0.3159 H         1 UNK         0.0774 
    107 H107       28.0692   32.3278   -2.7701 H         1 UNK         0.0815 
    108 H108       26.6770   32.8760   -1.8522 H         1 UNK         0.0815 
    109 H109       26.5756   31.3899   -2.7798 H         1 UNK         0.0815 
    110 H110       29.6117   30.3206    0.6130 H         1 UNK         0.2987 
    111 H111       30.3824   32.9774    1.7475 H         1 UNK         0.0949 
    112 H112       32.2181   30.6915    0.8387 H         1 UNK         0.0806 
    113 H113       32.0053   32.2145   -0.0244 H         1 UNK         0.0806 
    114 H114       32.7352   32.2046    1.5740 H         1 UNK         0.0806 
    115 H115       28.4759   31.1655    2.8111 H         1 UNK         0.3010 
    116 H116       29.2846   29.2149    4.5579 H         1 UNK         0.0829 
    117 H117       27.1109   29.6543    5.7336 H         1 UNK         0.0813 
    118 H118       26.9717   31.2023    4.9126 H         1 UNK         0.0813 
    119 H119       26.9073   29.7001    3.9909 H         1 UNK         0.0813 
    120 H120       30.0492   29.0200    6.5523 H         1 UNK         0.3038 
    121 H121       31.1292   29.3289    8.4226 H         1 UNK         0.0769 
    122 H122       30.0664   32.1964    8.5970 H         1 UNK         0.0811 
    123 H123       30.8215   31.2782    9.8864 H         1 UNK         0.0811 
    124 H124       29.2677   30.7658    9.2481 H         1 UNK         0.0811 
    125 H125       31.5667   32.0922    6.2101 H         1 UNK         0.3204 
    126 H126       34.1955   32.8200    7.0245 H         1 UNK         0.0748 
    127 H127       34.2698   34.0488    4.8588 H         1 UNK         0.0771 
    128 H128       32.8252   33.2138    4.3099 H         1 UNK         0.0771 
    129 H129       32.7418   34.3165    5.6821 H         1 UNK         0.0771 
    130 H130       33.0823   30.4260    4.5986 H         1 UNK         0.2980 
    131 H131       35.7347   29.6284    3.8341 H         1 UNK         0.0545 
    132 H132       35.2713   27.6621    7.2758 H         1 UNK         0.3459 
    133 H133       34.3756   29.1182    6.9246 H         1 UNK         0.3459 
    134 H134       33.9079   29.2897    2.2883 H         1 UNK         0.0616 
    135 H135       34.6684   27.7704    2.6499 H         1 UNK         0.0616 
    136 H136       31.9342   25.6478    4.1332 H         1 UNK         0.0634 
    137 H137       33.6497   25.8606    3.9006 H         1 UNK         0.0634 
@<TRIPOS>BOND
     1    1    2 1    
     2    1   72 1    
     3    1   73 1    
     4    1   74 1    
     5    2    3 2    
     6    2    4 am   BACKBONE|DICT|INTERRES
     7    4    5 1    
     8    4   75 1    
     9    5    6 1    
    10    5   35 1    
    11    5   76 1    
    12    6    7 1    
    13    6   77 1    
    14    6   78 1    
    15    7    8 1    
    16    8    9 1    
    17    8   79 1    
    18    8   80 1    
    19    9   10 ar   
    20    9   14 ar   
    21   10   11 ar   
    22   10   81 1    
    23   11   12 ar   
    24   11   71 1    
    25   12   13 ar   
    26   12   82 1    
    27   13   14 ar   
    28   13   15 1    
    29   14   83 1    
    30   15   16 1    
    31   15   84 1    
    32   15   85 1    
    33   16   17 1    
    34   17   18 1    
    35   17   86 1    
    36   17   87 1    
    37   18   19 1    
    38   18   37 1    
    39   18   88 1    
    40   19   20 am   BACKBONE|DICT|INTERRES
    41   19   89 1    
    42   20   21 2    
    43   20   22 1    
    44   22   23 1    
    45   22   24 1    
    46   22   90 1    
    47   23   91 1    
    48   23   92 1    
    49   23   93 1    
    50   24   25 am   BACKBONE|DICT|INTERRES
    51   24   94 1    
    52   25   26 2    
    53   25   27 1    
    54   27   28 1    
    55   27   29 1    
    56   27   95 1    
    57   28   96 1    
    58   28   97 1    
    59   28   98 1    
    60   29   30 am   BACKBONE|DICT|INTERRES
    61   29   99 1    
    62   30   31 2    
    63   30   32 1    
    64   32   33 1    
    65   32   34 1    
    66   32  100 1    
    67   33  101 1    
    68   33  102 1    
    69   33  103 1    
    70   34   35 am   BACKBONE|DICT|INTERRES
    71   34  104 1    
    72   35   36 2    
    73   37   38 2    
    74   37   39 am   BACKBONE|DICT|INTERRES
    75   39   40 1    
    76   39  105 1    
    77   40   41 1    
    78   40   42 1    
    79   40  106 1    
    80   41  107 1    
    81   41  108 1    
    82   41  109 1    
    83   42   43 2    
    84   42   44 am   BACKBONE|DICT|INTERRES
    85   44   45 1    
    86   44  110 1    
    87   45   46 1    
    88   45   47 1    
    89   45  111 1    
    90   46  112 1    
    91   46  113 1    
    92   46  114 1    
    93   47   48 2    
    94   47   49 am   BACKBONE|DICT|INTERRES
    95   49   50 1    
    96   49  115 1    
    97   50   51 1    
    98   50   52 1    
    99   50  116 1    
   100   51  117 1    
   101   51  118 1    
   102   51  119 1    
   103   52   53 2    
   104   52   54 am   BACKBONE|DICT|INTERRES
   105   54   55 1    
   106   54  120 1    
   107   55   56 1    
   108   55   57 1    
   109   55  121 1    
   110   56  122 1    
   111   56  123 1    
   112   56  124 1    
   113   57   58 2    
   114   57   59 am   BACKBONE|DICT|INTERRES
   115   59   60 1    
   116   59  125 1    
   117   60   61 1    
   118   60   62 1    
   119   60  126 1    
   120   61  127 1    
   121   61  128 1    
   122   61  129 1    
   123   62   63 2    
   124   62   64 am   BACKBONE|DICT|INTERRES
   125   64   65 1    
   126   64  130 1    
   127   65   66 1    
   128   65   69 1    
   129   65  131 1    
   130   66   67 am   BACKBONE|DICT|INTERRES
   131   66   68 2    
   132   67  132 1    
   133   67  133 1    
   134   69   70 1    
   135   69  134 1    
   136   69  135 1    
   137   70   71 1    
   138   71  136 1    
   139   71  137 1    
@<TRIPOS>SUBSTRUCTURE
     1 UNK         1 GROUP             0       ****    0 ROOT    
