@<TRIPOS>MOLECULE
3R136
137   139    1
SMALL
USER_CHARGES


@<TRIPOS>ATOM
      1 CA         25.1636   18.6267    1.2445 C.3       0 UNK        -0.1979 
      2 C          26.3562   19.3038    0.5851 C.2       0 UNK         0.4864 
      3 O          26.9626   18.7284   -0.3202 O.2       0 UNK        -0.5359 
      4 N          26.7016   20.5171    1.0356 N.am      1 UNK        -0.4318 
      5 CA         27.7760   21.3403    0.4756 C.3       1 UNK         0.0824 
      6 C6         28.1524   22.4911    1.4414 C.3       12 UNK        -0.0944 
      7 S7         29.7044   23.3347    0.9710 S.3       12 UNK        -0.2672 
      8 C8         30.7278   23.1349    2.4645 C.3       12 UNK         0.0333 
      9 C9         30.4790   24.2495    3.4718 C.ar      12 UNK        -0.0807 
     10 C10        31.4096   25.2820    3.6262 C.ar      12 UNK        -0.0894 
     11 C11        31.1998   26.2935    4.5695 C.ar      12 UNK        -0.0804 
     12 C12        30.0310   26.2901    5.3370 C.ar      12 UNK        -0.0824 
     13 C13        29.0848   25.2737    5.1767 C.ar      12 UNK        -0.0762 
     14 C14        29.3262   24.2459    4.2615 C.ar      12 UNK        -0.0782 
     15 C15        27.7907   25.2841    5.9758 C.3       12 UNK         0.0230 
     16 S16        26.3436   25.5119    4.8919 S.3       12 UNK        -0.2608 
     17 C17        26.5401   27.2477    4.3566 C.3       12 UNK        -0.0989 
     18 CA         27.3031   27.4218    3.0095 C.3       5 UNK         0.0716 
     19 N          26.8074   26.5718    1.9184 N.am      5 UNK        -0.4135 
     20 C          25.5791   26.5668    1.3800 C.2       4 UNK         0.5031 
     21 O          24.6505   27.2692    1.7830 O.2       4 UNK        -0.5229 
     22 CA         25.3733   25.6459    0.1555 C.3       4 UNK         0.0329 
     23 CB         24.1950   26.1011   -0.7307 C.3       4 UNK        -0.2001 
     24 N          26.5787   25.4589   -0.6696 N.am      4 UNK        -0.4303 
     25 C          27.3371   26.4203   -1.2251 C.2       3 UNK         0.5044 
     26 O          27.1202   27.6211   -1.0724 O.2       3 UNK        -0.5152 
     27 CA         28.5745   25.9989   -2.0391 C.3       3 UNK         0.0319 
     28 CB         29.8604   26.4643   -1.3328 C.3       3 UNK        -0.2001 
     29 N          28.6502   24.5547   -2.2675 N.am      3 UNK        -0.4354 
     30 C          28.0004   23.9007   -3.2416 C.2       2 UNK         0.4964 
     31 O          27.3235   24.4555   -4.1074 O.2       2 UNK        -0.5047 
     32 CA         28.0983   22.3634   -3.2311 C.3       2 UNK         0.0288 
     33 CB         29.2496   21.8904   -4.1335 C.3       2 UNK        -0.2113 
     34 N          28.2711   21.7998   -1.8871 N.am      2 UNK        -0.4145 
     35 C          27.3633   21.8872   -0.9044 C.2       1 UNK         0.5006 
     36 O          26.2655   22.4351   -1.0326 O.2       1 UNK        -0.5103 
     37 C          27.4330   28.9188    2.6292 C.2       5 UNK         0.5055 
     38 O          27.7404   29.7266    3.5084 O.2       5 UNK        -0.5220 
     39 N          27.2396   29.2862    1.3498 N.am      6 UNK        -0.4450 
     40 CA         27.2195   30.6765    0.8717 C.3       6 UNK         0.0367 
     41 CB         26.6565   30.7244   -0.5577 C.3       6 UNK        -0.1929 
     42 C          28.5796   31.3934    0.9367 C.2       6 UNK         0.5070 
     43 O          28.6127   32.6224    0.8700 O.2       6 UNK        -0.5237 
     44 N          29.6706   30.6285    1.0861 N.am      7 UNK        -0.4739 
     45 CA         31.0203   31.1373    1.3422 C.3       7 UNK         0.0276 
     46 CB         32.0243   29.9791    1.2344 C.3       7 UNK        -0.1927 
     47 C          31.1549   31.8422    2.7056 C.2       7 UNK         0.5013 
     48 O          32.0064   32.7228    2.8371 O.2       7 UNK        -0.5193 
     49 N          30.3112   31.4590    3.6796 N.am      8 UNK        -0.4253 
     50 CA         30.2074   32.0129    5.0330 C.3       8 UNK         0.0242 
     51 CB         29.5083   33.3907    4.9867 C.3       8 UNK        -0.2000 
     52 C          31.5646   32.0212    5.7624 C.2       8 UNK         0.4948 
     53 O          32.0421   30.9554    6.1514 O.2       8 UNK        -0.5275 
     54 N          32.1645   33.2091    5.9183 N.am      9 UNK        -0.4246 
     55 CA         33.4768   33.4148    6.5319 C.3       9 UNK         0.0261 
     56 CB         33.6564   34.9083    6.8488 C.3       9 UNK        -0.1959 
     57 C          34.6523   32.9040    5.6788 C.2       9 UNK         0.5033 
     58 O          35.6960   32.5783    6.2460 O.2       9 UNK        -0.5390 
     59 N          34.4854   32.8118    4.3505 N.am      10 UNK        -0.4215 
     60 CA         35.5120   32.3521    3.4055 C.3       10 UNK         0.0240 
     61 CB         35.2827   33.0263    2.0393 C.3       10 UNK        -0.1982 
     62 C          35.5656   30.8136    3.3053 C.2       10 UNK         0.4970 
     63 O          35.6714   30.2695    2.2051 O.2       10 UNK        -0.4916 
     64 N          35.4769   30.1396    4.4564 N.am      11 UNK        -0.4279 
     65 CA         35.4638   28.6774    4.5932 C.3       11 UNK         0.1003 
     66 C          36.8693   28.0090    4.5287 C.2       11 UNK         0.5709 
     67 N          37.9644   28.7605    4.5445 N.am      11 UNK        -0.7358 
     68 O          36.9710   26.7876    4.4469 O.2       11 UNK        -0.4999 
     69 C69        34.6627   28.2669    5.8602 C.3       12 UNK        -0.0954 
     70 S70        33.7013   26.7374    5.6375 S.3       12 UNK        -0.2268 
     71 C71        32.2411   27.3836    4.7639 C.3       12 UNK         0.0203 
     72 H72        24.7313   19.2405    2.0346 H         1 UNK         0.0888 
     73 H73        24.3877   18.4307    0.5049 H         1 UNK         0.0888 
     74 H74        25.4664   17.6756    1.6817 H         1 UNK         0.0888 
     75 H75        26.1463   20.9510    1.7589 H         1 UNK         0.3017 
     76 H76        28.6500   20.6960    0.3536 H         1 UNK         0.0873 
     77 H77        28.2654   22.0781    2.4434 H         1 UNK         0.0745 
     78 H78        27.3527   23.2312    1.5127 H         1 UNK         0.0745 
     79 H79        30.5482   22.1618    2.9238 H         1 UNK         0.0705 
     80 H80        31.7761   23.1323    2.1619 H         1 UNK         0.0705 
     81 H81        32.3109   25.2898    3.0283 H         1 UNK         0.1334 
     82 H82        29.8574   27.0795    6.0557 H         1 UNK         0.1417 
     83 H83        28.5971   23.4565    4.1555 H         1 UNK         0.1562 
     84 H84        27.8021   26.0619    6.7409 H         1 UNK         0.0748 
     85 H85        27.6905   24.3350    6.5043 H         1 UNK         0.0748 
     86 H86        27.0420   27.7993    5.1538 H         1 UNK         0.0940 
     87 H87        25.5425   27.6840    4.2829 H         1 UNK         0.0940 
     88 H88        28.3289   27.0914    3.1712 H         1 UNK         0.0703 
     89 H89        27.4940   25.9528    1.5130 H         1 UNK         0.3081 
     90 H90        25.1244   24.6626    0.5575 H         1 UNK         0.0719 
     91 H91        24.0487   25.4239   -1.5722 H         1 UNK         0.0809 
     92 H92        24.3554   27.1033   -1.1300 H         1 UNK         0.0809 
     93 H93        23.2616   26.1197   -0.1667 H         1 UNK         0.0809 
     94 H94        26.8099   24.4935   -0.8715 H         1 UNK         0.2990 
     95 H95        28.5162   26.5085   -3.0032 H         1 UNK         0.0690 
     96 H96        30.7477   26.1959   -1.9063 H         1 UNK         0.0788 
     97 H97        29.9597   26.0301   -0.3377 H         1 UNK         0.0788 
     98 H98        29.8709   27.5489   -1.2150 H         1 UNK         0.0788 
     99 H99        29.1901   24.0191   -1.6017 H         1 UNK         0.2993 
    100 H100       27.1611   21.9757   -3.6370 H         1 UNK         0.0949 
    101 H101       29.1333   22.2751   -5.1478 H         1 UNK         0.0767 
    102 H102       30.2186   22.2301   -3.7651 H         1 UNK         0.0767 
    103 H103       29.2781   20.8027   -4.2033 H         1 UNK         0.0767 
    104 H104       29.1519   21.3422   -1.6983 H         1 UNK         0.3013 
    105 H105       27.0449   28.5756    0.6494 H         1 UNK         0.3121 
    106 H106       26.5371   31.2316    1.5190 H         1 UNK         0.0774 
    107 H107       26.5163   31.7549   -0.8866 H         1 UNK         0.0815 
    108 H108       27.3285   30.2464   -1.2712 H         1 UNK         0.0815 
    109 H109       25.6878   30.2284   -0.6229 H         1 UNK         0.0815 
    110 H110       29.5449   29.6274    1.1045 H         1 UNK         0.2987 
    111 H111       31.2567   31.8735    0.5707 H         1 UNK         0.0949 
    112 H112       31.8244   29.2007    1.9707 H         1 UNK         0.0806 
    113 H113       31.9992   29.5215    0.2453 H         1 UNK         0.0806 
    114 H114       33.0431   30.3311    1.3995 H         1 UNK         0.0806 
    115 H115       29.6342   30.7361    3.4626 H         1 UNK         0.3010 
    116 H116       29.5630   31.3352    5.5953 H         1 UNK         0.0829 
    117 H117       28.5028   33.2984    4.5755 H         1 UNK         0.0813 
    118 H118       29.4049   33.8169    5.9856 H         1 UNK         0.0813 
    119 H119       30.0456   34.1100    4.3674 H         1 UNK         0.0813 
    120 H120       31.7054   34.0251    5.5401 H         1 UNK         0.3038 
    121 H121       33.4964   32.8625    7.4740 H         1 UNK         0.0769 
    122 H122       34.6150   35.0909    7.3369 H         1 UNK         0.0811 
    123 H123       32.8789   35.2681    7.5231 H         1 UNK         0.0811 
    124 H124       33.6293   35.5196    5.9459 H         1 UNK         0.0811 
    125 H125       33.5670   32.9983    3.9527 H         1 UNK         0.3204 
    126 H126       36.4905   32.6770    3.7655 H         1 UNK         0.0748 
    127 H127       36.0917   32.7917    1.3463 H         1 UNK         0.0771 
    128 H128       34.3525   32.6966    1.5757 H         1 UNK         0.0771 
    129 H129       35.2441   34.1117    2.1332 H         1 UNK         0.0771 
    130 H130       35.4436   30.6750    5.3152 H         1 UNK         0.2980 
    131 H131       34.9286   28.2969    3.7214 H         1 UNK         0.0545 
    132 H132       37.8968   29.7632    4.6095 H         1 UNK         0.3459 
    133 H133       38.8679   28.3166    4.4952 H         1 UNK         0.3459 
    134 H134       33.9567   29.0487    6.1443 H         1 UNK         0.0616 
    135 H135       35.3198   28.1488    6.7239 H         1 UNK         0.0616 
    136 H136       31.8213   28.2210    5.3239 H         1 UNK         0.0634 
    137 H137       32.5435   27.7783    3.7937 H         1 UNK         0.0634 
@<TRIPOS>BOND
     1    1    2 1    
     2    1   72 1    
     3    1   73 1    
     4    1   74 1    
     5    2    3 2    
     6    2    4 am   BACKBONE|DICT|INTERRES
     7    4    5 1    
     8    4   75 1    
     9    5    6 1    
    10    5   35 1    
    11    5   76 1    
    12    6    7 1    
    13    6   77 1    
    14    6   78 1    
    15    7    8 1    
    16    8    9 1    
    17    8   79 1    
    18    8   80 1    
    19    9   10 ar   
    20    9   14 ar   
    21   10   11 ar   
    22   10   81 1    
    23   11   12 ar   
    24   11   71 1    
    25   12   13 ar   
    26   12   82 1    
    27   13   14 ar   
    28   13   15 1    
    29   14   83 1    
    30   15   16 1    
    31   15   84 1    
    32   15   85 1    
    33   16   17 1    
    34   17   18 1    
    35   17   86 1    
    36   17   87 1    
    37   18   19 1    
    38   18   37 1    
    39   18   88 1    
    40   19   20 am   BACKBONE|DICT|INTERRES
    41   19   89 1    
    42   20   21 2    
    43   20   22 1    
    44   22   23 1    
    45   22   24 1    
    46   22   90 1    
    47   23   91 1    
    48   23   92 1    
    49   23   93 1    
    50   24   25 am   BACKBONE|DICT|INTERRES
    51   24   94 1    
    52   25   26 2    
    53   25   27 1    
    54   27   28 1    
    55   27   29 1    
    56   27   95 1    
    57   28   96 1    
    58   28   97 1    
    59   28   98 1    
    60   29   30 am   BACKBONE|DICT|INTERRES
    61   29   99 1    
    62   30   31 2    
    63   30   32 1    
    64   32   33 1    
    65   32   34 1    
    66   32  100 1    
    67   33  101 1    
    68   33  102 1    
    69   33  103 1    
    70   34   35 am   BACKBONE|DICT|INTERRES
    71   34  104 1    
    72   35   36 2    
    73   37   38 2    
    74   37   39 am   BACKBONE|DICT|INTERRES
    75   39   40 1    
    76   39  105 1    
    77   40   41 1    
    78   40   42 1    
    79   40  106 1    
    80   41  107 1    
    81   41  108 1    
    82   41  109 1    
    83   42   43 2    
    84   42   44 am   BACKBONE|DICT|INTERRES
    85   44   45 1    
    86   44  110 1    
    87   45   46 1    
    88   45   47 1    
    89   45  111 1    
    90   46  112 1    
    91   46  113 1    
    92   46  114 1    
    93   47   48 2    
    94   47   49 am   BACKBONE|DICT|INTERRES
    95   49   50 1    
    96   49  115 1    
    97   50   51 1    
    98   50   52 1    
    99   50  116 1    
   100   51  117 1    
   101   51  118 1    
   102   51  119 1    
   103   52   53 2    
   104   52   54 am   BACKBONE|DICT|INTERRES
   105   54   55 1    
   106   54  120 1    
   107   55   56 1    
   108   55   57 1    
   109   55  121 1    
   110   56  122 1    
   111   56  123 1    
   112   56  124 1    
   113   57   58 2    
   114   57   59 am   BACKBONE|DICT|INTERRES
   115   59   60 1    
   116   59  125 1    
   117   60   61 1    
   118   60   62 1    
   119   60  126 1    
   120   61  127 1    
   121   61  128 1    
   122   61  129 1    
   123   62   63 2    
   124   62   64 am   BACKBONE|DICT|INTERRES
   125   64   65 1    
   126   64  130 1    
   127   65   66 1    
   128   65   69 1    
   129   65  131 1    
   130   66   67 am   BACKBONE|DICT|INTERRES
   131   66   68 2    
   132   67  132 1    
   133   67  133 1    
   134   69   70 1    
   135   69  134 1    
   136   69  135 1    
   137   70   71 1    
   138   71  136 1    
   139   71  137 1    
@<TRIPOS>SUBSTRUCTURE
     1 UNK         1 GROUP             0       ****    0 ROOT    
