@<TRIPOS>MOLECULE
3R136
137   139    1
SMALL
USER_CHARGES


@<TRIPOS>ATOM
      1 CA         28.6158   24.6761    5.3985 C.3       0 UNK        -0.1979 
      2 C          28.3950   23.3981    4.6045 C.2       0 UNK         0.4864 
      3 O          28.3945   22.3104    5.1834 O.2       0 UNK        -0.5359 
      4 N          28.1981   23.5308    3.2900 N.am      1 UNK        -0.4318 
      5 CA         27.8618   22.4519    2.3602 C.3       1 UNK         0.0824 
      6 C6         28.9080   22.3548    1.2200 C.3       12 UNK        -0.0944 
      7 S7         30.4665   21.6140    1.7987 S.3       12 UNK        -0.2672 
      8 C8         31.6604   22.2934    0.5946 C.3       12 UNK         0.0333 
      9 C9         32.2655   23.6572    0.9392 C.ar      12 UNK        -0.0807 
     10 C10        32.9883   24.3274   -0.0535 C.ar      12 UNK        -0.0894 
     11 C11        33.6342   25.5373    0.2179 C.ar      12 UNK        -0.0804 
     12 C12        33.5529   26.0859    1.4993 C.ar      12 UNK        -0.0824 
     13 C13        32.8266   25.4372    2.5018 C.ar      12 UNK        -0.0762 
     14 C14        32.1831   24.2284    2.2167 C.ar      12 UNK        -0.0782 
     15 C15        32.7790   26.0167    3.9081 C.3       12 UNK         0.0230 
     16 S16        31.9871   27.6521    3.9612 S.3       12 UNK        -0.2608 
     17 C17        30.2581   27.2559    3.5348 C.3       12 UNK        -0.0989 
     18 CA         29.7073   28.2155    2.4367 C.3       5 UNK         0.0716 
     19 N          29.5112   27.6153    1.1153 N.am      5 UNK        -0.4135 
     20 C          28.7435   26.5693    0.7948 C.2       4 UNK         0.5031 
     21 O          28.1618   25.8474    1.6071 O.2       4 UNK        -0.5229 
     22 CA         28.6195   26.2810   -0.7057 C.3       4 UNK         0.0329 
     23 CB         29.8843   25.5924   -1.2549 C.3       4 UNK        -0.2001 
     24 N          27.4292   25.4683   -0.9594 N.am      4 UNK        -0.4303 
     25 C          26.8144   25.3701   -2.1462 C.2       3 UNK         0.5044 
     26 O          27.2261   25.9266   -3.1658 O.2       3 UNK        -0.5152 
     27 CA         25.5302   24.5236   -2.2208 C.3       3 UNK         0.0319 
     28 CB         25.2754   23.9458   -3.6284 C.3       3 UNK        -0.2001 
     29 N          25.5255   23.4401   -1.2359 N.am      3 UNK        -0.4354 
     30 C          24.4287   22.9689   -0.6261 C.2       2 UNK         0.4964 
     31 O          23.2937   23.4029   -0.8282 O.2       2 UNK        -0.5047 
     32 CA         24.6144   21.8138    0.3777 C.3       2 UNK         0.0288 
     33 CB         24.3208   20.4648   -0.2998 C.3       2 UNK        -0.2113 
     34 N          25.9405   21.7580    1.0043 N.am      2 UNK        -0.4145 
     35 C          26.4450   22.7060    1.8074 C.2       1 UNK         0.5006 
     36 O          25.8315   23.7366    2.0987 O.2       1 UNK        -0.5103 
     37 C          28.4383   28.9833    2.8541 C.2       5 UNK         0.5055 
     38 O          27.5711   28.4361    3.5378 O.2       5 UNK        -0.5220 
     39 N          28.3510   30.2461    2.4127 N.am      6 UNK        -0.4450 
     40 CA         27.2866   31.1871    2.7803 C.3       6 UNK         0.0367 
     41 CB         27.2875   32.3567    1.7833 C.3       6 UNK        -0.1929 
     42 C          27.4395   31.7096    4.2213 C.2       6 UNK         0.5070 
     43 O          26.4482   32.0825    4.8488 O.2       6 UNK        -0.5237 
     44 N          28.6793   31.7075    4.7146 N.am      7 UNK        -0.4739 
     45 CA         29.1014   31.9846    6.0812 C.3       7 UNK         0.0276 
     46 CB         29.2652   33.5019    6.2907 C.3       7 UNK        -0.1927 
     47 C          30.4156   31.2197    6.2986 C.2       7 UNK         0.5013 
     48 O          30.9303   30.6253    5.3455 O.2       7 UNK        -0.5193 
     49 N          30.9363   31.2413    7.5329 N.am      8 UNK        -0.4253 
     50 CA         32.1576   30.5461    7.9593 C.3       8 UNK         0.0242 
     51 CB         32.4477   30.8888    9.4310 C.3       8 UNK        -0.2000 
     52 C          33.3738   30.8602    7.0657 C.2       8 UNK         0.4948 
     53 O          33.9029   31.9715    7.1264 O.2       8 UNK        -0.5275 
     54 N          33.7503   29.8783    6.2328 N.am      9 UNK        -0.4246 
     55 CA         34.8053   29.9095    5.2107 C.3       9 UNK         0.0261 
     56 CB         36.1911   30.1551    5.8451 C.3       9 UNK        -0.1959 
     57 C          34.5295   30.8568    4.0224 C.2       9 UNK         0.5033 
     58 O          35.4361   31.0811    3.2177 O.2       9 UNK        -0.5390 
     59 N          33.2983   31.3682    3.8888 N.am      10 UNK        -0.4215 
     60 CA         32.8608   32.2140    2.7790 C.3       10 UNK         0.0240 
     61 CB         31.9533   33.3340    3.3183 C.3       10 UNK        -0.1982 
     62 C          32.1513   31.3242    1.7516 C.2       10 UNK         0.4970 
     63 O          30.9194   31.3186    1.6949 O.2       10 UNK        -0.4916 
     64 N          32.9575   30.5513    1.0092 N.am      11 UNK        -0.4279 
     65 CA         32.5615   29.5218    0.0328 C.3       11 UNK         0.1003 
     66 C          31.4204   29.9454   -0.9351 C.2       11 UNK         0.5709 
     67 N          31.5318   31.0898   -1.5977 N.am      11 UNK        -0.7358 
     68 O          30.4193   29.2420   -1.0489 O.2       11 UNK        -0.4999 
     69 C69        33.8067   28.9935   -0.7274 C.3       12 UNK        -0.0954 
     70 S70        33.4980   27.5007   -1.7367 S.3       12 UNK        -0.2268 
     71 C71        34.4545   26.2225   -0.8646 C.3       12 UNK         0.0203 
     72 H72        28.1706   25.5343    4.8947 H         1 UNK         0.0888 
     73 H73        28.1582   24.5953    6.3842 H         1 UNK         0.0888 
     74 H74        29.6816   24.8605    5.5297 H         1 UNK         0.0888 
     75 H75        28.1464   24.4584    2.8704 H         1 UNK         0.3017 
     76 H76        27.8186   21.4948    2.8846 H         1 UNK         0.0873 
     77 H77        28.5575   21.7374    0.3914 H         1 UNK         0.0745 
     78 H78        29.1065   23.3428    0.8054 H         1 UNK         0.0745 
     79 H79        31.1871   22.3350   -0.3878 H         1 UNK         0.0705 
     80 H80        32.4808   21.5801    0.5056 H         1 UNK         0.0705 
     81 H81        33.0669   23.8931   -1.0410 H         1 UNK         0.1334 
     82 H82        34.0608   27.0141    1.7221 H         1 UNK         0.1417 
     83 H83        31.6436   23.7245    3.0057 H         1 UNK         0.1562 
     84 H84        33.7982   26.1093    4.2856 H         1 UNK         0.0748 
     85 H85        32.2585   25.3471    4.5946 H         1 UNK         0.0748 
     86 H86        29.6936   27.3305    4.4652 H         1 UNK         0.0940 
     87 H87        30.1825   26.2125    3.2303 H         1 UNK         0.0940 
     88 H88        30.4648   28.9745    2.2696 H         1 UNK         0.0703 
     89 H89        29.8949   28.1516    0.3402 H         1 UNK         0.3081 
     90 H90        28.4930   27.2409   -1.2117 H         1 UNK         0.0719 
     91 H91        30.0183   24.5950   -0.8412 H         1 UNK         0.0809 
     92 H92        29.8490   25.4999   -2.3401 H         1 UNK         0.0809 
     93 H93        30.7798   26.1670   -1.0151 H         1 UNK         0.0809 
     94 H94        27.0093   25.0671   -0.1290 H         1 UNK         0.2990 
     95 H95        24.7180   25.2159   -1.9890 H         1 UNK         0.0690 
     96 H96        24.3358   23.3946   -3.6684 H         1 UNK         0.0788 
     97 H97        26.0744   23.2690   -3.9332 H         1 UNK         0.0788 
     98 H98        25.2120   24.7374   -4.3762 H         1 UNK         0.0788 
     99 H99        26.4188   23.0165   -1.0295 H         1 UNK         0.2993 
    100 H100       23.8808   21.9629    1.1733 H         1 UNK         0.0949 
    101 H101       25.0388   20.2452   -1.0911 H         1 UNK         0.0767 
    102 H102       24.3483   19.6447    0.4181 H         1 UNK         0.0767 
    103 H103       23.3276   20.4627   -0.7517 H         1 UNK         0.0767 
    104 H104       26.4882   20.9289    0.8221 H         1 UNK         0.3013 
    105 H105       29.1425   30.6359    1.9046 H         1 UNK         0.3121 
    106 H106       26.3256   30.6728    2.7112 H         1 UNK         0.0774 
    107 H107       26.4969   33.0706    2.0183 H         1 UNK         0.0815 
    108 H108       28.2340   32.8993    1.7998 H         1 UNK         0.0815 
    109 H109       27.1180   32.0092    0.7640 H         1 UNK         0.0815 
    110 H110       29.4234   31.3187    4.1460 H         1 UNK         0.2987 
    111 H111       28.3554   31.5902    6.7745 H         1 UNK         0.0949 
    112 H112       29.5274   33.7320    7.3238 H         1 UNK         0.0806 
    113 H113       30.0469   33.9200    5.6567 H         1 UNK         0.0806 
    114 H114       28.3394   34.0338    6.0708 H         1 UNK         0.0806 
    115 H115       30.4585   31.7742    8.2449 H         1 UNK         0.3010 
    116 H116       31.9540   29.4746    7.9029 H         1 UNK         0.0829 
    117 H117       31.6325   30.5731   10.0822 H         1 UNK         0.0813 
    118 H118       33.3510   30.3848    9.7778 H         1 UNK         0.0813 
    119 H119       32.5978   31.9597    9.5746 H         1 UNK         0.0813 
    120 H120       33.1902   29.0358    6.2294 H         1 UNK         0.3038 
    121 H121       34.8216   28.9070    4.7806 H         1 UNK         0.0769 
    122 H122       36.9877   30.0127    5.1137 H         1 UNK         0.0811 
    123 H123       36.3810   29.4633    6.6656 H         1 UNK         0.0811 
    124 H124       36.2866   31.1702    6.2314 H         1 UNK         0.0811 
    125 H125       32.5692   31.0656    4.5329 H         1 UNK         0.3204 
    126 H126       33.7163   32.6875    2.2926 H         1 UNK         0.0748 
    127 H127       31.6454   34.0047    2.5153 H         1 UNK         0.0771 
    128 H128       31.0474   32.9375    3.7728 H         1 UNK         0.0771 
    129 H129       32.4682   33.9354    4.0677 H         1 UNK         0.0771 
    130 H130       33.9515   30.6401    1.1666 H         1 UNK         0.2980 
    131 H131       32.1799   28.6913    0.6280 H         1 UNK         0.0545 
    132 H132       32.3438   31.6749   -1.4844 H         1 UNK         0.3459 
    133 H133       30.7866   31.3749   -2.2127 H         1 UNK         0.3459 
    134 H134       34.6060   28.7775   -0.0175 H         1 UNK         0.0616 
    135 H135       34.2038   29.7677   -1.3862 H         1 UNK         0.0616 
    136 H136       35.3663   26.6474   -0.4428 H         1 UNK         0.0634 
    137 H137       34.7844   25.4852   -1.5980 H         1 UNK         0.0634 
@<TRIPOS>BOND
     1    1    2 1    
     2    1   72 1    
     3    1   73 1    
     4    1   74 1    
     5    2    3 2    
     6    2    4 am   BACKBONE|DICT|INTERRES
     7    4    5 1    
     8    4   75 1    
     9    5    6 1    
    10    5   35 1    
    11    5   76 1    
    12    6    7 1    
    13    6   77 1    
    14    6   78 1    
    15    7    8 1    
    16    8    9 1    
    17    8   79 1    
    18    8   80 1    
    19    9   10 ar   
    20    9   14 ar   
    21   10   11 ar   
    22   10   81 1    
    23   11   12 ar   
    24   11   71 1    
    25   12   13 ar   
    26   12   82 1    
    27   13   14 ar   
    28   13   15 1    
    29   14   83 1    
    30   15   16 1    
    31   15   84 1    
    32   15   85 1    
    33   16   17 1    
    34   17   18 1    
    35   17   86 1    
    36   17   87 1    
    37   18   19 1    
    38   18   37 1    
    39   18   88 1    
    40   19   20 am   BACKBONE|DICT|INTERRES
    41   19   89 1    
    42   20   21 2    
    43   20   22 1    
    44   22   23 1    
    45   22   24 1    
    46   22   90 1    
    47   23   91 1    
    48   23   92 1    
    49   23   93 1    
    50   24   25 am   BACKBONE|DICT|INTERRES
    51   24   94 1    
    52   25   26 2    
    53   25   27 1    
    54   27   28 1    
    55   27   29 1    
    56   27   95 1    
    57   28   96 1    
    58   28   97 1    
    59   28   98 1    
    60   29   30 am   BACKBONE|DICT|INTERRES
    61   29   99 1    
    62   30   31 2    
    63   30   32 1    
    64   32   33 1    
    65   32   34 1    
    66   32  100 1    
    67   33  101 1    
    68   33  102 1    
    69   33  103 1    
    70   34   35 am   BACKBONE|DICT|INTERRES
    71   34  104 1    
    72   35   36 2    
    73   37   38 2    
    74   37   39 am   BACKBONE|DICT|INTERRES
    75   39   40 1    
    76   39  105 1    
    77   40   41 1    
    78   40   42 1    
    79   40  106 1    
    80   41  107 1    
    81   41  108 1    
    82   41  109 1    
    83   42   43 2    
    84   42   44 am   BACKBONE|DICT|INTERRES
    85   44   45 1    
    86   44  110 1    
    87   45   46 1    
    88   45   47 1    
    89   45  111 1    
    90   46  112 1    
    91   46  113 1    
    92   46  114 1    
    93   47   48 2    
    94   47   49 am   BACKBONE|DICT|INTERRES
    95   49   50 1    
    96   49  115 1    
    97   50   51 1    
    98   50   52 1    
    99   50  116 1    
   100   51  117 1    
   101   51  118 1    
   102   51  119 1    
   103   52   53 2    
   104   52   54 am   BACKBONE|DICT|INTERRES
   105   54   55 1    
   106   54  120 1    
   107   55   56 1    
   108   55   57 1    
   109   55  121 1    
   110   56  122 1    
   111   56  123 1    
   112   56  124 1    
   113   57   58 2    
   114   57   59 am   BACKBONE|DICT|INTERRES
   115   59   60 1    
   116   59  125 1    
   117   60   61 1    
   118   60   62 1    
   119   60  126 1    
   120   61  127 1    
   121   61  128 1    
   122   61  129 1    
   123   62   63 2    
   124   62   64 am   BACKBONE|DICT|INTERRES
   125   64   65 1    
   126   64  130 1    
   127   65   66 1    
   128   65   69 1    
   129   65  131 1    
   130   66   67 am   BACKBONE|DICT|INTERRES
   131   66   68 2    
   132   67  132 1    
   133   67  133 1    
   134   69   70 1    
   135   69  134 1    
   136   69  135 1    
   137   70   71 1    
   138   71  136 1    
   139   71  137 1    
@<TRIPOS>SUBSTRUCTURE
     1 UNK         1 GROUP             0       ****    0 ROOT    
