@<TRIPOS>MOLECULE
3R136
137   139    1
SMALL
USER_CHARGES


@<TRIPOS>ATOM
      1 CA         35.6514   23.3504   -2.1783 C.3       0 UNK        -0.1979 
      2 C          34.5489   24.1700   -1.5241 C.2       0 UNK         0.4864 
      3 O          34.7528   25.3503   -1.2381 O.2       0 UNK        -0.5359 
      4 N          33.3842   23.5535   -1.2826 N.am      1 UNK        -0.4318 
      5 CA         32.1953   24.1879   -0.7090 C.3       1 UNK         0.0824 
      6 C6         31.2409   23.1227   -0.1135 C.3       12 UNK        -0.0944 
      7 S7         30.0092   23.8446    1.0171 S.3       12 UNK        -0.2672 
      8 C8         30.6906   23.3895    2.6396 C.3       12 UNK         0.0333 
      9 C9         29.7518   23.8121    3.7589 C.ar      12 UNK        -0.0807 
     10 C10        30.0503   24.9157    4.5636 C.ar      12 UNK        -0.0894 
     11 C11        29.1894   25.3013    5.6027 C.ar      12 UNK        -0.0804 
     12 C12        28.0164   24.5675    5.8127 C.ar      12 UNK        -0.0824 
     13 C13        27.6875   23.4882    4.9867 C.ar      12 UNK        -0.0762 
     14 C14        28.5710   23.1004    3.9781 C.ar      12 UNK        -0.0782 
     15 C15        26.3521   22.7760    5.1363 C.3       12 UNK         0.0230 
     16 S16        25.2027   23.2554    3.8022 S.3       12 UNK        -0.2608 
     17 C17        24.8768   25.0080    4.1993 C.3       12 UNK        -0.0989 
     18 CA         25.8197   25.9956    3.4528 C.3       5 UNK         0.0716 
     19 N          25.7441   25.9073    1.9915 N.am      5 UNK        -0.4135 
     20 C          24.7063   26.2205    1.2073 C.2       4 UNK         0.5031 
     21 O          23.6294   26.6553    1.6201 O.2       4 UNK        -0.5229 
     22 CA         24.9262   26.0185   -0.3054 C.3       4 UNK         0.0329 
     23 CB         23.6129   26.0935   -1.1073 C.3       4 UNK        -0.2001 
     24 N          25.8755   26.9862   -0.8632 N.am      4 UNK        -0.4303 
     25 C          27.2031   26.9564   -0.6947 C.2       3 UNK         0.5044 
     26 O          27.7896   26.1216   -0.0044 O.2       3 UNK        -0.5152 
     27 CA         28.0037   28.0573   -1.3938 C.3       3 UNK         0.0319 
     28 CB         28.0409   29.3370   -0.5432 C.3       3 UNK        -0.2001 
     29 N          29.3676   27.5890   -1.6361 N.am      3 UNK        -0.4354 
     30 C          30.1113   27.9276   -2.6967 C.2       2 UNK         0.4964 
     31 O          29.7178   28.6966   -3.5754 O.2       2 UNK        -0.5047 
     32 CA         31.5305   27.3386   -2.8249 C.3       2 UNK         0.0288 
     33 CB         32.5873   28.4574   -2.8502 C.3       2 UNK        -0.2113 
     34 N          31.9020   26.3667   -1.7921 N.am      2 UNK        -0.4145 
     35 C          31.5255   25.0818   -1.7764 C.2       1 UNK         0.5006 
     36 O          30.7433   24.5899   -2.5926 O.2       1 UNK        -0.5103 
     37 C          25.6620   27.4499    3.9416 C.2       5 UNK         0.5055 
     38 O          24.7307   27.7622    4.6875 O.2       5 UNK        -0.5220 
     39 N          26.5822   28.3148    3.5050 N.am      6 UNK        -0.4450 
     40 CA         26.6849   29.7146    3.9028 C.3       6 UNK         0.0367 
     41 CB         25.9749   30.5971    2.8619 C.3       6 UNK        -0.1929 
     42 C          28.1704   30.0691    4.0007 C.2       6 UNK         0.5070 
     43 O          28.9937   29.3932    3.3803 O.2       6 UNK        -0.5237 
     44 N          28.4866   31.1472    4.7322 N.am      7 UNK        -0.4739 
     45 CA         29.8505   31.6277    5.0091 C.3       7 UNK         0.0276 
     46 CB         29.7764   32.8735    5.9056 C.3       7 UNK        -0.1927 
     47 C          30.7114   31.9147    3.7638 C.2       7 UNK         0.5013 
     48 O          31.9375   31.8403    3.8471 O.2       7 UNK        -0.5193 
     49 N          30.0623   32.1683    2.6185 N.am      8 UNK        -0.4253 
     50 CA         30.6760   32.2591    1.2900 C.3       8 UNK         0.0242 
     51 CB         29.6075   32.6922    0.2734 C.3       8 UNK        -0.2000 
     52 C          31.3967   30.9720    0.8311 C.2       8 UNK         0.4948 
     53 O          32.2516   31.0556   -0.0500 O.2       8 UNK        -0.5275 
     54 N          31.0945   29.8233    1.4586 N.am      9 UNK        -0.4246 
     55 CA         31.8350   28.5664    1.3154 C.3       9 UNK         0.0261 
     56 CB         30.9576   27.4043    1.8110 C.3       9 UNK        -0.1959 
     57 C          33.1988   28.5586    2.0406 C.2       9 UNK         0.5033 
     58 O          33.9168   27.5658    1.9239 O.2       9 UNK        -0.5390 
     59 N          33.5256   29.6310    2.7820 N.am      10 UNK        -0.4215 
     60 CA         34.7462   29.8534    3.5708 C.3       10 UNK         0.0240 
     61 CB         36.0180   29.7670    2.6990 C.3       10 UNK        -0.1982 
     62 C          34.8338   28.9963    4.8489 C.2       10 UNK         0.4970 
     63 O          35.9129   28.8862    5.4341 O.2       10 UNK        -0.4916 
     64 N          33.7003   28.4322    5.2787 N.am      11 UNK        -0.4279 
     65 CA         33.5221   27.7475    6.5640 C.3       11 UNK         0.1003 
     66 C          33.5159   28.7232    7.7752 C.2       11 UNK         0.5709 
     67 N          33.7918   28.2217    8.9718 N.am      11 UNK        -0.7358 
     68 O          33.2454   29.9169    7.6501 O.2       11 UNK        -0.4999 
     69 C69        32.2724   26.8274    6.5380 C.3       12 UNK        -0.0954 
     70 S70        30.7485   27.6671    5.9733 S.3       12 UNK        -0.2268 
     71 C71        29.4569   26.4991    6.5200 C.3       12 UNK         0.0203 
     72 H72        36.5305   23.3240   -1.5350 H         1 UNK         0.0888 
     73 H73        35.3392   22.3236   -2.3680 H         1 UNK         0.0888 
     74 H74        35.9378   23.7992   -3.1290 H         1 UNK         0.0888 
     75 H75        33.2693   22.5909   -1.5671 H         1 UNK         0.3017 
     76 H76        32.5301   24.8253    0.1131 H         1 UNK         0.0873 
     77 H77        30.7193   22.5703   -0.8974 H         1 UNK         0.0745 
     78 H78        31.8142   22.3751    0.4372 H         1 UNK         0.0745 
     79 H79        30.8426   22.3099    2.6838 H         1 UNK         0.0705 
     80 H80        31.6725   23.8499    2.7610 H         1 UNK         0.0705 
     81 H81        30.9537   25.4688    4.3610 H         1 UNK         0.1334 
     82 H82        27.3342   24.8650    6.5977 H         1 UNK         0.1417 
     83 H83        28.3199   22.2675    3.3348 H         1 UNK         0.1562 
     84 H84        25.8997   22.9860    6.1068 H         1 UNK         0.0748 
     85 H85        26.5098   21.6971    5.0987 H         1 UNK         0.0748 
     86 H86        24.9623   25.1387    5.2797 H         1 UNK         0.0940 
     87 H87        23.8343   25.2231    3.9583 H         1 UNK         0.0940 
     88 H88        26.8467   25.7252    3.6896 H         1 UNK         0.0703 
     89 H89        26.6024   25.6345    1.5208 H         1 UNK         0.3081 
     90 H90        25.3359   25.0149   -0.4412 H         1 UNK         0.0719 
     91 H91        23.1550   27.0816   -1.0449 H         1 UNK         0.0809 
     92 H92        23.7770   25.8650   -2.1605 H         1 UNK         0.0809 
     93 H93        22.8851   25.3729   -0.7314 H         1 UNK         0.0809 
     94 H94        25.4759   27.7337   -1.4124 H         1 UNK         0.2990 
     95 H95        27.5153   28.2719   -2.3470 H         1 UNK         0.0690 
     96 H96        28.6390   30.1066   -1.0300 H         1 UNK         0.0788 
     97 H97        28.4644   29.1552    0.4451 H         1 UNK         0.0788 
     98 H98        27.0393   29.7440   -0.4025 H         1 UNK         0.0788 
     99 H99        29.7003   26.8884   -0.9863 H         1 UNK         0.2993 
    100 H100       31.5659   26.8303   -3.7912 H         1 UNK         0.0949 
    101 H101       33.5908   28.0539   -2.9884 H         1 UNK         0.0767 
    102 H102       32.4048   29.1504   -3.6727 H         1 UNK         0.0767 
    103 H103       32.5836   29.0424   -1.9307 H         1 UNK         0.0767 
    104 H104       32.6146   26.6574   -1.1364 H         1 UNK         0.3013 
    105 H105       27.3711   27.9842    2.9622 H         1 UNK         0.3121 
    106 H106       26.2312   29.8607    4.8856 H         1 UNK         0.0774 
    107 H107       26.0139   31.6497    3.1445 H         1 UNK         0.0815 
    108 H108       26.4320   30.5050    1.8765 H         1 UNK         0.0815 
    109 H109       24.9229   30.3269    2.7677 H         1 UNK         0.0815 
    110 H110       27.7385   31.6537    5.1849 H         1 UNK         0.2987 
    111 H111       30.3615   30.8379    5.5647 H         1 UNK         0.0949 
    112 H112       29.2421   33.6904    5.4188 H         1 UNK         0.0806 
    113 H113       29.2744   32.6559    6.8485 H         1 UNK         0.0806 
    114 H114       30.7752   33.2376    6.1515 H         1 UNK         0.0806 
    115 H115       29.0544   32.2035    2.6552 H         1 UNK         0.3010 
    116 H116       31.4372   33.0408    1.3349 H         1 UNK         0.0829 
    117 H117       29.2591   33.7048    0.4777 H         1 UNK         0.0813 
    118 H118       30.0030   32.6877   -0.7436 H         1 UNK         0.0813 
    119 H119       28.7396   32.0340    0.2931 H         1 UNK         0.0813 
    120 H120       30.3565   29.8214    2.1610 H         1 UNK         0.3038 
    121 H121       32.0347   28.4106    0.2556 H         1 UNK         0.0769 
    122 H122       30.7429   27.4895    2.8761 H         1 UNK         0.0811 
    123 H123       31.4533   26.4455    1.6613 H         1 UNK         0.0811 
    124 H124       30.0053   27.3620    1.2836 H         1 UNK         0.0811 
    125 H125       32.8442   30.3814    2.8599 H         1 UNK         0.3204 
    126 H126       34.6717   30.8833    3.9232 H         1 UNK         0.0748 
    127 H127       36.8928   30.1168    3.2484 H         1 UNK         0.0771 
    128 H128       36.2254   28.7449    2.3814 H         1 UNK         0.0771 
    129 H129       35.9297   30.3858    1.8060 H         1 UNK         0.0771 
    130 H130       32.8519   28.6003    4.7600 H         1 UNK         0.2980 
    131 H131       34.3917   27.1011    6.6984 H         1 UNK         0.0545 
    132 H132       34.0098   27.2449    9.0921 H         1 UNK         0.3459 
    133 H133       33.7847   28.8350    9.7717 H         1 UNK         0.3459 
    134 H134       32.0978   26.3864    7.5209 H         1 UNK         0.0616 
    135 H135       32.4714   25.9864    5.8747 H         1 UNK         0.0616 
    136 H136       28.5333   27.0724    6.6149 H         1 UNK         0.0634 
    137 H137       29.6959   26.1380    7.5210 H         1 UNK         0.0634 
@<TRIPOS>BOND
     1    1    2 1    
     2    1   72 1    
     3    1   73 1    
     4    1   74 1    
     5    2    3 2    
     6    2    4 am   BACKBONE|DICT|INTERRES
     7    4    5 1    
     8    4   75 1    
     9    5    6 1    
    10    5   35 1    
    11    5   76 1    
    12    6    7 1    
    13    6   77 1    
    14    6   78 1    
    15    7    8 1    
    16    8    9 1    
    17    8   79 1    
    18    8   80 1    
    19    9   10 ar   
    20    9   14 ar   
    21   10   11 ar   
    22   10   81 1    
    23   11   12 ar   
    24   11   71 1    
    25   12   13 ar   
    26   12   82 1    
    27   13   14 ar   
    28   13   15 1    
    29   14   83 1    
    30   15   16 1    
    31   15   84 1    
    32   15   85 1    
    33   16   17 1    
    34   17   18 1    
    35   17   86 1    
    36   17   87 1    
    37   18   19 1    
    38   18   37 1    
    39   18   88 1    
    40   19   20 am   BACKBONE|DICT|INTERRES
    41   19   89 1    
    42   20   21 2    
    43   20   22 1    
    44   22   23 1    
    45   22   24 1    
    46   22   90 1    
    47   23   91 1    
    48   23   92 1    
    49   23   93 1    
    50   24   25 am   BACKBONE|DICT|INTERRES
    51   24   94 1    
    52   25   26 2    
    53   25   27 1    
    54   27   28 1    
    55   27   29 1    
    56   27   95 1    
    57   28   96 1    
    58   28   97 1    
    59   28   98 1    
    60   29   30 am   BACKBONE|DICT|INTERRES
    61   29   99 1    
    62   30   31 2    
    63   30   32 1    
    64   32   33 1    
    65   32   34 1    
    66   32  100 1    
    67   33  101 1    
    68   33  102 1    
    69   33  103 1    
    70   34   35 am   BACKBONE|DICT|INTERRES
    71   34  104 1    
    72   35   36 2    
    73   37   38 2    
    74   37   39 am   BACKBONE|DICT|INTERRES
    75   39   40 1    
    76   39  105 1    
    77   40   41 1    
    78   40   42 1    
    79   40  106 1    
    80   41  107 1    
    81   41  108 1    
    82   41  109 1    
    83   42   43 2    
    84   42   44 am   BACKBONE|DICT|INTERRES
    85   44   45 1    
    86   44  110 1    
    87   45   46 1    
    88   45   47 1    
    89   45  111 1    
    90   46  112 1    
    91   46  113 1    
    92   46  114 1    
    93   47   48 2    
    94   47   49 am   BACKBONE|DICT|INTERRES
    95   49   50 1    
    96   49  115 1    
    97   50   51 1    
    98   50   52 1    
    99   50  116 1    
   100   51  117 1    
   101   51  118 1    
   102   51  119 1    
   103   52   53 2    
   104   52   54 am   BACKBONE|DICT|INTERRES
   105   54   55 1    
   106   54  120 1    
   107   55   56 1    
   108   55   57 1    
   109   55  121 1    
   110   56  122 1    
   111   56  123 1    
   112   56  124 1    
   113   57   58 2    
   114   57   59 am   BACKBONE|DICT|INTERRES
   115   59   60 1    
   116   59  125 1    
   117   60   61 1    
   118   60   62 1    
   119   60  126 1    
   120   61  127 1    
   121   61  128 1    
   122   61  129 1    
   123   62   63 2    
   124   62   64 am   BACKBONE|DICT|INTERRES
   125   64   65 1    
   126   64  130 1    
   127   65   66 1    
   128   65   69 1    
   129   65  131 1    
   130   66   67 am   BACKBONE|DICT|INTERRES
   131   66   68 2    
   132   67  132 1    
   133   67  133 1    
   134   69   70 1    
   135   69  134 1    
   136   69  135 1    
   137   70   71 1    
   138   71  136 1    
   139   71  137 1    
@<TRIPOS>SUBSTRUCTURE
     1 UNK         1 GROUP             0       ****    0 ROOT    
