@<TRIPOS>MOLECULE
3R136
137   139    1
SMALL
USER_CHARGES


@<TRIPOS>ATOM
      1 CA         25.0729   24.7253    3.4542 C.3       0 UNK        -0.1979 
      2 C          25.8369   23.5878    2.7941 C.2       0 UNK         0.4864 
      3 O          25.3079   22.4817    2.6689 O.2       0 UNK        -0.5359 
      4 N          27.0695   23.8535    2.3463 N.am      1 UNK        -0.4318 
      5 CA         27.9090   22.9267    1.5869 C.3       1 UNK         0.0824 
      6 C6         29.3622   23.4427    1.5143 C.3       12 UNK        -0.0944 
      7 S7         30.5103   22.3279    0.6361 S.3       12 UNK        -0.2672 
      8 C8         32.1149   22.8136    1.3573 C.3       12 UNK         0.0333 
      9 C9         32.3319   24.3239    1.3829 C.ar      12 UNK        -0.0807 
     10 C10        32.6874   24.9555    2.5787 C.ar      12 UNK        -0.0894 
     11 C11        32.8837   26.3385    2.6208 C.ar      12 UNK        -0.0804 
     12 C12        32.7075   27.0955    1.4592 C.ar      12 UNK        -0.0824 
     13 C13        32.3368   26.4790    0.2608 C.ar      12 UNK        -0.0762 
     14 C14        32.1727   25.0909    0.2235 C.ar      12 UNK        -0.0782 
     15 C15        32.1123   27.3138   -0.9915 C.3       12 UNK         0.0230 
     16 S16        30.5586   28.2622   -0.9111 S.3       12 UNK        -0.2608 
     17 C17        29.2956   26.9439   -1.0080 C.3       12 UNK        -0.0989 
     18 CA         27.9228   27.4083   -0.4618 C.3       5 UNK         0.0716 
     19 N          26.8341   26.5466   -0.9276 N.am      5 UNK        -0.4135 
     20 C          25.6048   26.9961   -1.2132 C.2       4 UNK         0.5031 
     21 O          25.2409   28.1585   -1.0270 O.2       4 UNK        -0.5229 
     22 CA         24.6222   26.0084   -1.8526 C.3       4 UNK         0.0329 
     23 CB         25.1373   25.5080   -3.2147 C.3       4 UNK        -0.2001 
     24 N          24.3526   24.8628   -0.9865 N.am      4 UNK        -0.4303 
     25 C          23.1265   24.3900   -0.7122 C.2       3 UNK         0.5044 
     26 O          22.0869   24.9566   -1.0553 O.2       3 UNK        -0.5152 
     27 CA         23.0352   23.0543    0.0605 C.3       3 UNK         0.0319 
     28 CB         21.7319   22.2805   -0.2321 C.3       3 UNK        -0.2001 
     29 N          24.2070   22.1903   -0.1274 N.am      3 UNK        -0.4354 
     30 C          24.6857   21.6983   -1.2847 C.2       2 UNK         0.4964 
     31 O          24.0952   21.7868   -2.3621 O.2       2 UNK        -0.5047 
     32 CA         26.0794   21.0304   -1.2362 C.3       2 UNK         0.0288 
     33 CB         26.8611   21.2070   -2.5562 C.3       2 UNK        -0.2113 
     34 N          26.8964   21.4659   -0.0932 N.am      2 UNK        -0.4145 
     35 C          27.2705   22.7217    0.1999 C.2       1 UNK         0.5006 
     36 O          27.0493   23.7025   -0.5195 O.2       1 UNK        -0.5103 
     37 C          27.9103   27.5051    1.0743 C.2       5 UNK         0.5055 
     38 O          27.7157   26.4980    1.7578 O.2       5 UNK        -0.5220 
     39 N          28.1512   28.7156    1.5827 N.am      6 UNK        -0.4450 
     40 CA         28.2997   29.0340    3.0003 C.3       6 UNK         0.0367 
     41 CB         26.9222   29.0898    3.6932 C.3       6 UNK        -0.1929 
     42 C          29.0934   30.3433    3.1174 C.2       6 UNK         0.5070 
     43 O          28.6627   31.2735    3.8009 O.2       6 UNK        -0.5237 
     44 N          30.2158   30.4173    2.3885 N.am      7 UNK        -0.4739 
     45 CA         31.1035   31.5777    2.3278 C.3       7 UNK         0.0276 
     46 CB         32.0482   31.4241    1.1220 C.3       7 UNK        -0.1927 
     47 C          31.8848   31.7347    3.6410 C.2       7 UNK         0.5013 
     48 O          32.9350   31.1107    3.7985 O.2       7 UNK        -0.5193 
     49 N          31.3625   32.5596    4.5593 N.am      8 UNK        -0.4253 
     50 CA         31.8831   32.7884    5.9147 C.3       8 UNK         0.0242 
     51 CB         31.0145   33.8412    6.6210 C.3       8 UNK        -0.2000 
     52 C          33.3692   33.1828    5.9908 C.2       8 UNK         0.4948 
     53 O          34.0368   32.8166    6.9576 O.2       8 UNK        -0.5275 
     54 N          33.8726   33.8736    4.9580 N.am      9 UNK        -0.4246 
     55 CA         35.2883   34.2145    4.7898 C.3       9 UNK         0.0261 
     56 CB         35.4395   35.1661    3.5918 C.3       9 UNK        -0.1959 
     57 C          36.2087   32.9886    4.6221 C.2       9 UNK         0.5033 
     58 O          37.3846   33.0751    4.9794 O.2       9 UNK        -0.5390 
     59 N          35.6686   31.8822    4.0931 N.am      10 UNK        -0.4215 
     60 CA         36.3518   30.5963    3.9667 C.3       10 UNK         0.0240 
     61 CB         36.0142   29.9685    2.6027 C.3       10 UNK        -0.1982 
     62 C          35.9539   29.6499    5.1087 C.2       10 UNK         0.4970 
     63 O          36.8257   28.9753    5.6577 O.2       10 UNK        -0.4916 
     64 N          34.6534   29.5976    5.4299 N.am      11 UNK        -0.4279 
     65 CA         34.0822   28.6918    6.4377 C.3       11 UNK         0.1003 
     66 C          34.4414   29.0547    7.9068 C.2       11 UNK         0.5709 
     67 N          34.7393   30.3058    8.2347 N.am      11 UNK        -0.7358 
     68 O          34.4575   28.1765    8.7661 O.2       11 UNK        -0.4999 
     69 C69        32.5445   28.5339    6.2740 C.3       12 UNK        -0.0954 
     70 S70        31.9101   27.9162    4.6691 S.3       12 UNK        -0.2268 
     71 C71        33.3008   27.0148    3.9158 C.3       12 UNK         0.0203 
     72 H72        25.6800   25.6270    3.5341 H         1 UNK         0.0888 
     73 H73        24.7615   24.4361    4.4575 H         1 UNK         0.0888 
     74 H74        24.1824   24.9664    2.8747 H         1 UNK         0.0888 
     75 H75        27.3951   24.8202    2.3531 H         1 UNK         0.3017 
     76 H76        27.9186   21.9740    2.1210 H         1 UNK         0.0873 
     77 H77        29.7389   23.5944    2.5273 H         1 UNK         0.0745 
     78 H78        29.3946   24.4206    1.0355 H         1 UNK         0.0745 
     79 H79        32.1770   22.3982    2.3643 H         1 UNK         0.0705 
     80 H80        32.9166   22.3487    0.7823 H         1 UNK         0.0705 
     81 H81        32.8154   24.3701    3.4791 H         1 UNK         0.1334 
     82 H82        32.8479   28.1667    1.4931 H         1 UNK         0.1417 
     83 H83        31.8929   24.6059   -0.7020 H         1 UNK         0.1562 
     84 H84        32.1067   26.6869   -1.8847 H         1 UNK         0.0748 
     85 H85        32.9434   28.0102   -1.1126 H         1 UNK         0.0748 
     86 H86        29.6376   26.0479   -0.4924 H         1 UNK         0.0940 
     87 H87        29.2032   26.6657   -2.0592 H         1 UNK         0.0940 
     88 H88        27.7453   28.4090   -0.8636 H         1 UNK         0.0703 
     89 H89        27.0326   25.5513   -0.9871 H         1 UNK         0.3081 
     90 H90        23.7016   26.5667   -2.0360 H         1 UNK         0.0719 
     91 H91        26.0312   24.8914   -3.1117 H         1 UNK         0.0809 
     92 H92        24.3814   24.9086   -3.7226 H         1 UNK         0.0809 
     93 H93        25.3857   26.3422   -3.8722 H         1 UNK         0.0809 
     94 H94        25.1651   24.3463   -0.6648 H         1 UNK         0.2990 
     95 H95        23.0250   23.3220    1.1178 H         1 UNK         0.0690 
     96 H96        21.6906   21.3470    0.3289 H         1 UNK         0.0788 
     97 H97        21.6320   22.0408   -1.2912 H         1 UNK         0.0788 
     98 H98        20.8563   22.8654    0.0519 H         1 UNK         0.0788 
     99 H99        24.7590   22.0499    0.7133 H         1 UNK         0.2993 
    100 H100       25.8964   19.9638   -1.0973 H         1 UNK         0.0949 
    101 H101       26.3295   20.7499   -3.3917 H         1 UNK         0.0767 
    102 H102       27.0081   22.2593   -2.8021 H         1 UNK         0.0767 
    103 H103       27.8424   20.7355   -2.5021 H         1 UNK         0.0767 
    104 H104       27.1099   20.7423    0.5801 H         1 UNK         0.3013 
    105 H105       28.3159   29.4865    0.9485 H         1 UNK         0.3121 
    106 H106       28.8993   28.2554    3.4774 H         1 UNK         0.0774 
    107 H107       26.4030   28.1339    3.6294 H         1 UNK         0.0815 
    108 H108       26.2802   29.8504    3.2476 H         1 UNK         0.0815 
    109 H109       27.0276   29.3279    4.7523 H         1 UNK         0.0815 
    110 H110       30.5157   29.5953    1.8834 H         1 UNK         0.2987 
    111 H111       30.5002   32.4745    2.1698 H         1 UNK         0.0949 
    112 H112       32.6651   30.5284    1.1973 H         1 UNK         0.0806 
    113 H113       31.4915   31.3666    0.1864 H         1 UNK         0.0806 
    114 H114       32.7239   32.2769    1.0451 H         1 UNK         0.0806 
    115 H115       30.4656   32.9779    4.3521 H         1 UNK         0.3010 
    116 H116       31.7781   31.8474    6.4569 H         1 UNK         0.0829 
    117 H117       29.9748   33.5196    6.6862 H         1 UNK         0.0813 
    118 H118       31.3616   34.0143    7.6409 H         1 UNK         0.0813 
    119 H119       31.0387   34.7997    6.1011 H         1 UNK         0.0813 
    120 H120       33.2466   34.1371    4.2110 H         1 UNK         0.3038 
    121 H121       35.6107   34.7423    5.6899 H         1 UNK         0.0769 
    122 H122       35.1109   34.7006    2.6616 H         1 UNK         0.0811 
    123 H123       36.4812   35.4612    3.4577 H         1 UNK         0.0811 
    124 H124       34.8624   36.0800    3.7341 H         1 UNK         0.0811 
    125 H125       34.6764   31.8785    3.8726 H         1 UNK         0.3204 
    126 H126       37.4337   30.7388    4.0111 H         1 UNK         0.0748 
    127 H127       36.3487   30.6046    1.7831 H         1 UNK         0.0771 
    128 H128       36.5063   29.0021    2.4849 H         1 UNK         0.0771 
    129 H129       34.9427   29.8058    2.4808 H         1 UNK         0.0771 
    130 H130       33.9867   30.1538    4.8993 H         1 UNK         0.2980 
    131 H131       34.5308   27.7111    6.2745 H         1 UNK         0.0545 
    132 H132       34.9763   30.5147    9.1909 H         1 UNK         0.3459 
    133 H133       34.6556   31.0646    7.5662 H         1 UNK         0.3459 
    134 H134       32.1629   27.8498    7.0343 H         1 UNK         0.0616 
    135 H135       32.0538   29.4888    6.4658 H         1 UNK         0.0616 
    136 H136       33.6805   26.2771    4.6240 H         1 UNK         0.0634 
    137 H137       34.1203   27.6971    3.6971 H         1 UNK         0.0634 
@<TRIPOS>BOND
     1    1    2 1    
     2    1   72 1    
     3    1   73 1    
     4    1   74 1    
     5    2    3 2    
     6    2    4 am   BACKBONE|DICT|INTERRES
     7    4    5 1    
     8    4   75 1    
     9    5    6 1    
    10    5   35 1    
    11    5   76 1    
    12    6    7 1    
    13    6   77 1    
    14    6   78 1    
    15    7    8 1    
    16    8    9 1    
    17    8   79 1    
    18    8   80 1    
    19    9   10 ar   
    20    9   14 ar   
    21   10   11 ar   
    22   10   81 1    
    23   11   12 ar   
    24   11   71 1    
    25   12   13 ar   
    26   12   82 1    
    27   13   14 ar   
    28   13   15 1    
    29   14   83 1    
    30   15   16 1    
    31   15   84 1    
    32   15   85 1    
    33   16   17 1    
    34   17   18 1    
    35   17   86 1    
    36   17   87 1    
    37   18   19 1    
    38   18   37 1    
    39   18   88 1    
    40   19   20 am   BACKBONE|DICT|INTERRES
    41   19   89 1    
    42   20   21 2    
    43   20   22 1    
    44   22   23 1    
    45   22   24 1    
    46   22   90 1    
    47   23   91 1    
    48   23   92 1    
    49   23   93 1    
    50   24   25 am   BACKBONE|DICT|INTERRES
    51   24   94 1    
    52   25   26 2    
    53   25   27 1    
    54   27   28 1    
    55   27   29 1    
    56   27   95 1    
    57   28   96 1    
    58   28   97 1    
    59   28   98 1    
    60   29   30 am   BACKBONE|DICT|INTERRES
    61   29   99 1    
    62   30   31 2    
    63   30   32 1    
    64   32   33 1    
    65   32   34 1    
    66   32  100 1    
    67   33  101 1    
    68   33  102 1    
    69   33  103 1    
    70   34   35 am   BACKBONE|DICT|INTERRES
    71   34  104 1    
    72   35   36 2    
    73   37   38 2    
    74   37   39 am   BACKBONE|DICT|INTERRES
    75   39   40 1    
    76   39  105 1    
    77   40   41 1    
    78   40   42 1    
    79   40  106 1    
    80   41  107 1    
    81   41  108 1    
    82   41  109 1    
    83   42   43 2    
    84   42   44 am   BACKBONE|DICT|INTERRES
    85   44   45 1    
    86   44  110 1    
    87   45   46 1    
    88   45   47 1    
    89   45  111 1    
    90   46  112 1    
    91   46  113 1    
    92   46  114 1    
    93   47   48 2    
    94   47   49 am   BACKBONE|DICT|INTERRES
    95   49   50 1    
    96   49  115 1    
    97   50   51 1    
    98   50   52 1    
    99   50  116 1    
   100   51  117 1    
   101   51  118 1    
   102   51  119 1    
   103   52   53 2    
   104   52   54 am   BACKBONE|DICT|INTERRES
   105   54   55 1    
   106   54  120 1    
   107   55   56 1    
   108   55   57 1    
   109   55  121 1    
   110   56  122 1    
   111   56  123 1    
   112   56  124 1    
   113   57   58 2    
   114   57   59 am   BACKBONE|DICT|INTERRES
   115   59   60 1    
   116   59  125 1    
   117   60   61 1    
   118   60   62 1    
   119   60  126 1    
   120   61  127 1    
   121   61  128 1    
   122   61  129 1    
   123   62   63 2    
   124   62   64 am   BACKBONE|DICT|INTERRES
   125   64   65 1    
   126   64  130 1    
   127   65   66 1    
   128   65   69 1    
   129   65  131 1    
   130   66   67 am   BACKBONE|DICT|INTERRES
   131   66   68 2    
   132   67  132 1    
   133   67  133 1    
   134   69   70 1    
   135   69  134 1    
   136   69  135 1    
   137   70   71 1    
   138   71  136 1    
   139   71  137 1    
@<TRIPOS>SUBSTRUCTURE
     1 UNK         1 GROUP             0       ****    0 ROOT    
