@<TRIPOS>MOLECULE
3R136
137   139    1
SMALL
USER_CHARGES


@<TRIPOS>ATOM
      1 CA         34.2999   25.5880    0.9463 C.3       0 UNK        -0.1979 
      2 C          33.0253   26.3496    0.6133 C.2       0 UNK         0.4864 
      3 O          33.0871   27.5383    0.2987 O.2       0 UNK        -0.5359 
      4 N          31.8730   25.6732    0.6841 N.am      1 UNK        -0.4318 
      5 CA         30.5632   26.2264    0.3399 C.3       1 UNK         0.0824 
      6 C6         29.4156   25.5278    1.1168 C.3       12 UNK        -0.0944 
      7 S7         29.2314   23.7291    0.8239 S.3       12 UNK        -0.2672 
      8 C8         30.2731   22.9650    2.1156 C.3       12 UNK         0.0333 
      9 C9         29.8632   23.3918    3.5159 C.ar      12 UNK        -0.0807 
     10 C10        30.6381   24.3130    4.2266 C.ar      12 UNK        -0.0894 
     11 C11        30.2332   24.7677    5.4881 C.ar      12 UNK        -0.0804 
     12 C12        29.0475   24.2674    6.0373 C.ar      12 UNK        -0.0824 
     13 C13        28.2724   23.3328    5.3432 C.ar      12 UNK        -0.0762 
     14 C14        28.6953   22.8857    4.0889 C.ar      12 UNK        -0.0782 
     15 C15        26.9664   22.8241    5.9396 C.3       12 UNK         0.0230 
     16 S16        25.5276   23.1830    4.8768 S.3       12 UNK        -0.2608 
     17 C17        25.6275   24.9988    4.6888 C.3       12 UNK        -0.0989 
     18 CA         26.1329   25.4328    3.2801 C.3       5 UNK         0.0716 
     19 N          25.3595   24.8593    2.1700 N.am      5 UNK        -0.4135 
     20 C          24.0531   25.0353    1.9258 C.2       4 UNK         0.5031 
     21 O          23.3074   25.7097    2.6388 O.2       4 UNK        -0.5229 
     22 CA         23.4941   24.3610    0.6514 C.3       4 UNK         0.0329 
     23 CB         22.1718   25.0067    0.1847 C.3       4 UNK        -0.2001 
     24 N          24.4342   24.2921   -0.4816 N.am      4 UNK        -0.4303 
     25 C          25.1274   25.3105   -1.0105 C.2       3 UNK         0.5044 
     26 O          25.1690   26.4425   -0.5227 O.2       3 UNK        -0.5152 
     27 CA         25.8982   25.0272   -2.3041 C.3       3 UNK         0.0319 
     28 CB         24.9552   25.1373   -3.5192 C.3       3 UNK        -0.2001 
     29 N          26.9737   26.0095   -2.3824 N.am      3 UNK        -0.4354 
     30 C          27.9639   26.0752   -3.2783 C.2       2 UNK         0.4964 
     31 O          28.0983   25.3046   -4.2292 O.2       2 UNK        -0.5047 
     32 CA         29.0038   27.1796   -3.0345 C.3       2 UNK         0.0288 
     33 CB         28.4208   28.5713   -3.3341 C.3       2 UNK        -0.2113 
     34 N          29.4859   27.1366   -1.6535 N.am      2 UNK        -0.4145 
     35 C          30.3357   26.2150   -1.1833 C.2       1 UNK         0.5006 
     36 O          30.9025   25.3764   -1.8909 O.2       1 UNK        -0.5103 
     37 C          26.3310   26.9665    3.1763 C.2       5 UNK         0.5055 
     38 O          26.7690   27.5750    4.1545 O.2       5 UNK        -0.5220 
     39 N          26.0426   27.5796    2.0160 N.am      6 UNK        -0.4450 
     40 CA         26.3048   28.9954    1.7533 C.3       6 UNK         0.0367 
     41 CB         25.3940   29.4965    0.6205 C.3       6 UNK        -0.1929 
     42 C          27.7835   29.1790    1.3889 C.2       6 UNK         0.5070 
     43 O          28.2423   28.5905    0.4066 O.2       6 UNK        -0.5237 
     44 N          28.4998   29.9776    2.1827 N.am      7 UNK        -0.4739 
     45 CA         29.9278   30.2462    2.0429 C.3       7 UNK         0.0276 
     46 CB         30.7195   29.2097    2.8619 C.3       7 UNK        -0.1927 
     47 C          30.2257   31.6588    2.5580 C.2       7 UNK         0.5013 
     48 O          29.4189   32.2266    3.3005 O.2       7 UNK        -0.5193 
     49 N          31.4013   32.1752    2.1939 N.am      8 UNK        -0.4253 
     50 CA         31.9917   33.3964    2.7291 C.3       8 UNK         0.0242 
     51 CB         31.6253   34.5984    1.8419 C.3       8 UNK        -0.2000 
     52 C          33.5050   33.1729    2.7701 C.2       8 UNK         0.4948 
     53 O          34.0491   32.6139    1.8132 O.2       8 UNK        -0.5275 
     54 N          34.1489   33.5852    3.8713 N.am      9 UNK        -0.4246 
     55 CA         35.5767   33.4462    4.2096 C.3       9 UNK         0.0261 
     56 CB         36.4707   34.2175    3.2181 C.3       9 UNK        -0.1959 
     57 C          36.0613   31.9914    4.3805 C.2       9 UNK         0.5033 
     58 O          36.6932   31.6797    5.3915 O.2       9 UNK        -0.5390 
     59 N          35.7593   31.1323    3.4019 N.am      10 UNK        -0.4215 
     60 CA         36.0170   29.6936    3.4096 C.3       10 UNK         0.0240 
     61 CB         35.8537   29.1616    1.9764 C.3       10 UNK        -0.1982 
     62 C          35.0803   28.9463    4.3761 C.2       10 UNK         0.4970 
     63 O          34.0185   29.4635    4.7260 O.2       10 UNK        -0.4916 
     64 N          35.5103   27.7401    4.7678 N.am      11 UNK        -0.4279 
     65 CA         34.8464   26.7856    5.6765 C.3       11 UNK         0.1003 
     66 C          34.6905   27.2319    7.1636 C.2       11 UNK         0.5709 
     67 N          35.1990   28.3885    7.5713 N.am      11 UNK        -0.7358 
     68 O          34.1490   26.4880    7.9781 O.2       11 UNK        -0.4999 
     69 C69        33.5856   26.1062    5.0538 C.3       12 UNK        -0.0954 
     70 S70        31.9937   26.9789    5.2808 S.3       12 UNK        -0.2268 
     71 C71        31.0426   25.7899    6.2895 C.3       12 UNK         0.0203 
     72 H72        34.9804   25.6071    0.0955 H         1 UNK         0.0888 
     73 H73        34.8027   26.0498    1.7947 H         1 UNK         0.0888 
     74 H74        34.0998   24.5465    1.1975 H         1 UNK         0.0888 
     75 H75        31.8828   24.6826    0.8712 H         1 UNK         0.3017 
     76 H76        30.5623   27.2757    0.6368 H         1 UNK         0.0873 
     77 H77        29.5289   25.7233    2.1822 H         1 UNK         0.0745 
     78 H78        28.4615   25.9877    0.8560 H         1 UNK         0.0745 
     79 H79        30.1909   21.8803    2.0326 H         1 UNK         0.0705 
     80 H80        31.3214   23.1995    1.9309 H         1 UNK         0.0705 
     81 H81        31.5440   24.6918    3.7773 H         1 UNK         0.1334 
     82 H82        28.7222   24.6148    7.0087 H         1 UNK         0.1417 
     83 H83        28.0920   22.1748    3.5402 H         1 UNK         0.1562 
     84 H84        26.7917   23.2575    6.9257 H         1 UNK         0.0748 
     85 H85        27.0380   21.7456    6.0862 H         1 UNK         0.0748 
     86 H86        26.2767   25.3958    5.4712 H         1 UNK         0.0940 
     87 H87        24.6406   25.4183    4.8893 H         1 UNK         0.0940 
     88 H88        27.1370   25.0260    3.1614 H         1 UNK         0.0703 
     89 H89        25.8852   24.2888    1.5238 H         1 UNK         0.3081 
     90 H90        23.2766   23.3296    0.9327 H         1 UNK         0.0719 
     91 H91        22.3082   26.0581   -0.0718 H         1 UNK         0.0809 
     92 H92        21.7680   24.4980   -0.6907 H         1 UNK         0.0809 
     93 H93        21.4103   24.9566    0.9641 H         1 UNK         0.0809 
     94 H94        24.4922   23.3927   -0.9401 H         1 UNK         0.2990 
     95 H95        26.3352   24.0281   -2.2527 H         1 UNK         0.0690 
     96 H96        25.4649   24.8931   -4.4509 H         1 UNK         0.0788 
     97 H97        24.5440   26.1430   -3.6168 H         1 UNK         0.0788 
     98 H98        24.1142   24.4487   -3.4280 H         1 UNK         0.0788 
     99 H99        26.9351   26.6958   -1.6375 H         1 UNK         0.2993 
    100 H100       29.8458   27.0073   -3.7089 H         1 UNK         0.0949 
    101 H101       28.0387   28.6227   -4.3546 H         1 UNK         0.0767 
    102 H102       27.5987   28.8231   -2.6624 H         1 UNK         0.0767 
    103 H103       29.1810   29.3461   -3.2331 H         1 UNK         0.0767 
    104 H104       29.0439   27.7700   -0.9864 H         1 UNK         0.3013 
    105 H105       25.7069   27.0361    1.2248 H         1 UNK         0.3121 
    106 H106       26.0728   29.5737    2.6505 H         1 UNK         0.0774 
    107 H107       25.5104   30.5713    0.4778 H         1 UNK         0.0815 
    108 H108       25.6261   29.0186   -0.3318 H         1 UNK         0.0815 
    109 H109       24.3434   29.3081    0.8418 H         1 UNK         0.0815 
    110 H110       28.0520   30.4814    2.9385 H         1 UNK         0.2987 
    111 H111       30.2122   30.1869    0.9896 H         1 UNK         0.0949 
    112 H112       31.7850   29.2510    2.6307 H         1 UNK         0.0806 
    113 H113       30.6148   29.3840    3.9338 H         1 UNK         0.0806 
    114 H114       30.3847   28.1913    2.6732 H         1 UNK         0.0806 
    115 H115       32.0311   31.6357    1.6124 H         1 UNK         0.3010 
    116 H116       31.6278   33.5686    3.7447 H         1 UNK         0.0829 
    117 H117       30.5464   34.7507    1.8079 H         1 UNK         0.0813 
    118 H118       32.0715   35.5169    2.2253 H         1 UNK         0.0813 
    119 H119       31.9772   34.4655    0.8180 H         1 UNK         0.0813 
    120 H120       33.5898   34.0078    4.6004 H         1 UNK         0.3038 
    121 H121       35.6916   33.9241    5.1840 H         1 UNK         0.0769 
    122 H122       36.4193   33.8045    2.2103 H         1 UNK         0.0811 
    123 H123       37.5157   34.1809    3.5286 H         1 UNK         0.0811 
    124 H124       36.1860   35.2682    3.1636 H         1 UNK         0.0811 
    125 H125       35.1892   31.4973    2.6404 H         1 UNK         0.3204 
    126 H126       37.0490   29.5357    3.7300 H         1 UNK         0.0748 
    127 H127       36.5076   29.6873    1.2803 H         1 UNK         0.0771 
    128 H128       36.1068   28.1030    1.9161 H         1 UNK         0.0771 
    129 H129       34.8282   29.2741    1.6209 H         1 UNK         0.0771 
    130 H130       36.4122   27.4341    4.4326 H         1 UNK         0.2980 
    131 H131       35.5874   25.9887    5.7493 H         1 UNK         0.0545 
    132 H132       35.1079   28.6527    8.5393 H         1 UNK         0.3459 
    133 H133       35.6342   29.0158    6.9138 H         1 UNK         0.3459 
    134 H134       33.7333   25.9584    3.9841 H         1 UNK         0.0616 
    135 H135       33.4887   25.1006    5.4653 H         1 UNK         0.0616 
    136 H136       31.7082   25.2673    6.9774 H         1 UNK         0.0634 
    137 H137       30.3642   26.3754    6.9118 H         1 UNK         0.0634 
@<TRIPOS>BOND
     1    1    2 1    
     2    1   72 1    
     3    1   73 1    
     4    1   74 1    
     5    2    3 2    
     6    2    4 am   BACKBONE|DICT|INTERRES
     7    4    5 1    
     8    4   75 1    
     9    5    6 1    
    10    5   35 1    
    11    5   76 1    
    12    6    7 1    
    13    6   77 1    
    14    6   78 1    
    15    7    8 1    
    16    8    9 1    
    17    8   79 1    
    18    8   80 1    
    19    9   10 ar   
    20    9   14 ar   
    21   10   11 ar   
    22   10   81 1    
    23   11   12 ar   
    24   11   71 1    
    25   12   13 ar   
    26   12   82 1    
    27   13   14 ar   
    28   13   15 1    
    29   14   83 1    
    30   15   16 1    
    31   15   84 1    
    32   15   85 1    
    33   16   17 1    
    34   17   18 1    
    35   17   86 1    
    36   17   87 1    
    37   18   19 1    
    38   18   37 1    
    39   18   88 1    
    40   19   20 am   BACKBONE|DICT|INTERRES
    41   19   89 1    
    42   20   21 2    
    43   20   22 1    
    44   22   23 1    
    45   22   24 1    
    46   22   90 1    
    47   23   91 1    
    48   23   92 1    
    49   23   93 1    
    50   24   25 am   BACKBONE|DICT|INTERRES
    51   24   94 1    
    52   25   26 2    
    53   25   27 1    
    54   27   28 1    
    55   27   29 1    
    56   27   95 1    
    57   28   96 1    
    58   28   97 1    
    59   28   98 1    
    60   29   30 am   BACKBONE|DICT|INTERRES
    61   29   99 1    
    62   30   31 2    
    63   30   32 1    
    64   32   33 1    
    65   32   34 1    
    66   32  100 1    
    67   33  101 1    
    68   33  102 1    
    69   33  103 1    
    70   34   35 am   BACKBONE|DICT|INTERRES
    71   34  104 1    
    72   35   36 2    
    73   37   38 2    
    74   37   39 am   BACKBONE|DICT|INTERRES
    75   39   40 1    
    76   39  105 1    
    77   40   41 1    
    78   40   42 1    
    79   40  106 1    
    80   41  107 1    
    81   41  108 1    
    82   41  109 1    
    83   42   43 2    
    84   42   44 am   BACKBONE|DICT|INTERRES
    85   44   45 1    
    86   44  110 1    
    87   45   46 1    
    88   45   47 1    
    89   45  111 1    
    90   46  112 1    
    91   46  113 1    
    92   46  114 1    
    93   47   48 2    
    94   47   49 am   BACKBONE|DICT|INTERRES
    95   49   50 1    
    96   49  115 1    
    97   50   51 1    
    98   50   52 1    
    99   50  116 1    
   100   51  117 1    
   101   51  118 1    
   102   51  119 1    
   103   52   53 2    
   104   52   54 am   BACKBONE|DICT|INTERRES
   105   54   55 1    
   106   54  120 1    
   107   55   56 1    
   108   55   57 1    
   109   55  121 1    
   110   56  122 1    
   111   56  123 1    
   112   56  124 1    
   113   57   58 2    
   114   57   59 am   BACKBONE|DICT|INTERRES
   115   59   60 1    
   116   59  125 1    
   117   60   61 1    
   118   60   62 1    
   119   60  126 1    
   120   61  127 1    
   121   61  128 1    
   122   61  129 1    
   123   62   63 2    
   124   62   64 am   BACKBONE|DICT|INTERRES
   125   64   65 1    
   126   64  130 1    
   127   65   66 1    
   128   65   69 1    
   129   65  131 1    
   130   66   67 am   BACKBONE|DICT|INTERRES
   131   66   68 2    
   132   67  132 1    
   133   67  133 1    
   134   69   70 1    
   135   69  134 1    
   136   69  135 1    
   137   70   71 1    
   138   71  136 1    
   139   71  137 1    
@<TRIPOS>SUBSTRUCTURE
     1 UNK         1 GROUP             0       ****    0 ROOT    
