@<TRIPOS>MOLECULE
3R136
137   139    1
SMALL
USER_CHARGES


@<TRIPOS>ATOM
      1 CA         30.0156   23.1767    6.1921 C.3       0 UNK        -0.1979 
      2 C          29.4359   22.5655    4.9249 C.2       0 UNK         0.4864 
      3 O          29.0098   21.4093    4.9397 O.2       0 UNK        -0.5359 
      4 N          29.4283   23.3325    3.8279 N.am      1 UNK        -0.4318 
      5 CA         28.8607   22.9445    2.5329 C.3       1 UNK         0.0824 
      6 C6         29.3668   23.8807    1.4026 C.3       12 UNK        -0.0944 
      7 S7         29.6153   23.0041   -0.1785 S.3       12 UNK        -0.2672 
      8 C8         31.4072   22.6557   -0.1491 C.3       12 UNK         0.0333 
      9 C9         32.2337   23.9300   -0.0479 C.ar      12 UNK        -0.0807 
     10 C10        32.8981   24.2444    1.1412 C.ar      12 UNK        -0.0894 
     11 C11        33.5832   25.4550    1.2733 C.ar      12 UNK        -0.0804 
     12 C12        33.6321   26.3397    0.1916 C.ar      12 UNK        -0.0824 
     13 C13        32.9855   26.0276   -1.0090 C.ar      12 UNK        -0.0762 
     14 C14        32.2943   24.8175   -1.1252 C.ar      12 UNK        -0.0782 
     15 C15        33.0151   27.0032   -2.1772 C.3       12 UNK         0.0230 
     16 S16        32.0844   28.5327   -1.8363 S.3       12 UNK        -0.2608 
     17 C17        30.3867   27.9160   -1.5567 C.3       12 UNK        -0.0989 
     18 CA         29.5955   28.8224   -0.5815 C.3       5 UNK         0.0716 
     19 N          28.1499   28.7058   -0.7848 N.am      5 UNK        -0.4135 
     20 C          27.2090   29.4174   -0.1459 C.2       4 UNK         0.5031 
     21 O          27.4646   30.3537    0.6143 O.2       4 UNK        -0.5229 
     22 CA         25.7439   28.9718   -0.3299 C.3       4 UNK         0.0329 
     23 CB         24.9912   29.9709   -1.2228 C.3       4 UNK        -0.2001 
     24 N          25.5735   27.6136   -0.8708 N.am      4 UNK        -0.4303 
     25 C          26.0283   26.4817   -0.3117 C.2       3 UNK         0.5044 
     26 O          26.6775   26.4478    0.7370 O.2       3 UNK        -0.5152 
     27 CA         25.8097   25.1982   -1.1279 C.3       3 UNK         0.0319 
     28 CB         26.8592   25.1042   -2.2496 C.3       3 UNK        -0.2001 
     29 N          25.9207   24.0028   -0.2943 N.am      3 UNK        -0.4354 
     30 C          24.9448   23.5020    0.4767 C.2       2 UNK         0.4964 
     31 O          23.8071   23.9705    0.5334 O.2       2 UNK        -0.5047 
     32 CA         25.2910   22.2560    1.3162 C.3       2 UNK         0.0288 
     33 CB         24.8640   20.9750    0.5808 C.3       2 UNK        -0.2113 
     34 N          26.7214   22.1795    1.6269 N.am      2 UNK        -0.4145 
     35 C          27.3180   22.9244    2.5664 C.2       1 UNK         0.5006 
     36 O          26.7033   23.6211    3.3788 O.2       1 UNK        -0.5103 
     37 C          30.0190   28.6149    0.8934 C.2       5 UNK         0.5055 
     38 O          31.0056   29.2177    1.3145 O.2       5 UNK        -0.5220 
     39 N          29.2281   27.8564    1.6747 N.am      6 UNK        -0.4450 
     40 CA         29.3745   27.7151    3.1279 C.3       6 UNK         0.0367 
     41 CB         28.2639   26.8073    3.6753 C.3       6 UNK        -0.1929 
     42 C          29.3524   29.0522    3.8872 C.2       6 UNK         0.5070 
     43 O          30.1062   29.2120    4.8477 O.2       6 UNK        -0.5237 
     44 N          28.4989   29.9832    3.4399 N.am      7 UNK        -0.4739 
     45 CA         28.3942   31.3317    3.9914 C.3       7 UNK         0.0276 
     46 CB         26.9756   31.8758    3.7580 C.3       7 UNK        -0.1927 
     47 C          29.4440   32.2711    3.3830 C.2       7 UNK         0.5013 
     48 O          30.0129   33.0808    4.1141 O.2       7 UNK        -0.5193 
     49 N          29.6930   32.1433    2.0699 N.am      8 UNK        -0.4253 
     50 CA         30.6413   32.9785    1.3233 C.3       8 UNK         0.0242 
     51 CB         30.4868   32.7373   -0.1866 C.3       8 UNK        -0.2000 
     52 C          32.1021   32.7721    1.7581 C.2       8 UNK         0.4948 
     53 O          32.8153   33.7555    1.9604 O.2       8 UNK        -0.5275 
     54 N          32.5140   31.5064    1.9157 N.am      9 UNK        -0.4246 
     55 CA         33.8359   31.1240    2.4204 C.3       9 UNK         0.0261 
     56 CB         34.1979   29.7345    1.8705 C.3       9 UNK        -0.1959 
     57 C          33.9090   31.1287    3.9581 C.2       9 UNK         0.5033 
     58 O          35.0107   31.0400    4.5013 O.2       9 UNK        -0.5390 
     59 N          32.7466   31.2069    4.6249 N.am      10 UNK        -0.4215 
     60 CA         32.5310   31.1726    6.0773 C.3       10 UNK         0.0240 
     61 CB         33.1694   32.4007    6.7607 C.3       10 UNK        -0.1982 
     62 C          32.9386   29.8397    6.7399 C.2       10 UNK         0.4970 
     63 O          33.1720   29.8101    7.9498 O.2       10 UNK        -0.4916 
     64 N          33.0031   28.7616    5.9487 N.am      11 UNK        -0.4279 
     65 CA         33.2730   27.3935    6.4078 C.3       11 UNK         0.1003 
     66 C          32.0375   26.6767    7.0263 C.2       11 UNK         0.5709 
     67 N          30.8172   27.1681    6.8374 N.am      11 UNK        -0.7358 
     68 O          32.1942   25.6654    7.7061 O.2       11 UNK        -0.4999 
     69 C69        33.9626   26.5471    5.3045 C.3       12 UNK        -0.0954 
     70 S70        32.9727   26.3805    3.7829 S.3       12 UNK        -0.2268 
     71 C71        34.2308   25.8138    2.6010 C.3       12 UNK         0.0203 
     72 H72        29.2580   23.2088    6.9760 H         1 UNK         0.0888 
     73 H73        30.8532   22.5778    6.5501 H         1 UNK         0.0888 
     74 H74        30.3745   24.1932    6.0258 H         1 UNK         0.0888 
     75 H75        29.7768   24.2773    3.8886 H         1 UNK         0.3017 
     76 H76        29.2058   21.9266    2.3361 H         1 UNK         0.0873 
     77 H77        30.2959   24.3659    1.6962 H         1 UNK         0.0745 
     78 H78        28.6819   24.7103    1.2177 H         1 UNK         0.0745 
     79 H79        31.6256   21.9834    0.6824 H         1 UNK         0.0705 
     80 H80        31.6799   22.1185   -1.0586 H         1 UNK         0.0705 
     81 H81        32.8441   23.5689    1.9842 H         1 UNK         0.1334 
     82 H82        34.1515   27.2826    0.2879 H         1 UNK         0.1417 
     83 H83        31.7740   24.5763   -2.0424 H         1 UNK         0.1562 
     84 H84        32.6175   26.5413   -3.0823 H         1 UNK         0.0748 
     85 H85        34.0512   27.2639   -2.3976 H         1 UNK         0.0748 
     86 H86        30.3948   26.8842   -1.2028 H         1 UNK         0.0940 
     87 H87        29.8995   27.8928   -2.5329 H         1 UNK         0.0940 
     88 H88        29.8268   29.8573   -0.8308 H         1 UNK         0.0703 
     89 H89        27.8399   27.9619   -1.3905 H         1 UNK         0.3081 
     90 H90        25.2852   28.9859    0.6609 H         1 UNK         0.0719 
     91 H91        25.3867   29.9825   -2.2392 H         1 UNK         0.0809 
     92 H92        23.9284   29.7340   -1.2769 H         1 UNK         0.0809 
     93 H93        25.0736   30.9856   -0.8298 H         1 UNK         0.0809 
     94 H94        25.0694   27.5450   -1.7439 H         1 UNK         0.2990 
     95 H95        24.8138   25.2298   -1.5755 H         1 UNK         0.0690 
     96 H96        26.7286   24.1955   -2.8378 H         1 UNK         0.0788 
     97 H97        27.8763   25.1007   -1.8539 H         1 UNK         0.0788 
     98 H98        26.7793   25.9447   -2.9401 H         1 UNK         0.0788 
     99 H99        26.8348   23.5782   -0.2474 H         1 UNK         0.2993 
    100 H100       24.7275   22.3192    2.2502 H         1 UNK         0.0949 
    101 H101       23.7962   20.9921    0.3572 H         1 UNK         0.0767 
    102 H102       25.3934   20.8548   -0.3653 H         1 UNK         0.0767 
    103 H103       25.0524   20.0884    1.1870 H         1 UNK         0.0767 
    104 H104       27.2951   21.6279    1.0039 H         1 UNK         0.3013 
    105 H105       28.4163   27.4069    1.2619 H         1 UNK         0.3121 
    106 H106       30.3360   27.2396    3.3141 H         1 UNK         0.0774 
    107 H107       28.3928   26.6293    4.7438 H         1 UNK         0.0815 
    108 H108       27.2758   27.2468    3.5334 H         1 UNK         0.0815 
    109 H109       28.2590   25.8390    3.1845 H         1 UNK         0.0815 
    110 H110       27.9536   29.7898    2.6080 H         1 UNK         0.2987 
    111 H111       28.5665   31.2912    5.0697 H         1 UNK         0.0949 
    112 H112       26.7361   31.9502    2.6966 H         1 UNK         0.0806 
    113 H113       26.2256   31.2383    4.2263 H         1 UNK         0.0806 
    114 H114       26.8663   32.8728    4.1869 H         1 UNK         0.0806 
    115 H115       29.1594   31.4608    1.5449 H         1 UNK         0.3010 
    116 H116       30.3789   34.0196    1.5242 H         1 UNK         0.0829 
    117 H117       29.4433   32.7826   -0.4996 H         1 UNK         0.0813 
    118 H118       31.0290   33.4958   -0.7526 H         1 UNK         0.0813 
    119 H119       30.8920   31.7712   -0.4847 H         1 UNK         0.0813 
    120 H120       31.8772   30.7389    1.6958 H         1 UNK         0.3038 
    121 H121       34.5779   31.8365    2.0540 H         1 UNK         0.0769 
    122 H122       33.5086   28.9685    2.2266 H         1 UNK         0.0811 
    123 H123       35.2013   29.4385    2.1790 H         1 UNK         0.0811 
    124 H124       34.1746   29.7232    0.7807 H         1 UNK         0.0811 
    125 H125       31.9043   31.2761    4.0709 H         1 UNK         0.3204 
    126 H126       31.4515   31.2501    6.2151 H         1 UNK         0.0748 
    127 H127       32.8504   33.3278    6.2841 H         1 UNK         0.0771 
    128 H128       32.8781   32.4618    7.8100 H         1 UNK         0.0771 
    129 H129       34.2586   32.3628    6.7280 H         1 UNK         0.0771 
    130 H130       32.7401   28.8565    4.9791 H         1 UNK         0.2980 
    131 H131       33.9944   27.4665    7.2239 H         1 UNK         0.0545 
    132 H132       30.0307   26.7096    7.2662 H         1 UNK         0.3459 
    133 H133       30.6722   27.9823    6.2486 H         1 UNK         0.3459 
    134 H134       34.2021   25.5492    5.6764 H         1 UNK         0.0616 
    135 H135       34.9176   27.0061    5.0438 H         1 UNK         0.0616 
    136 H136       34.7478   24.9432    3.0073 H         1 UNK         0.0634 
    137 H137       34.9821   26.5937    2.4680 H         1 UNK         0.0634 
@<TRIPOS>BOND
     1    1    2 1    
     2    1   72 1    
     3    1   73 1    
     4    1   74 1    
     5    2    3 2    
     6    2    4 am   BACKBONE|DICT|INTERRES
     7    4    5 1    
     8    4   75 1    
     9    5    6 1    
    10    5   35 1    
    11    5   76 1    
    12    6    7 1    
    13    6   77 1    
    14    6   78 1    
    15    7    8 1    
    16    8    9 1    
    17    8   79 1    
    18    8   80 1    
    19    9   10 ar   
    20    9   14 ar   
    21   10   11 ar   
    22   10   81 1    
    23   11   12 ar   
    24   11   71 1    
    25   12   13 ar   
    26   12   82 1    
    27   13   14 ar   
    28   13   15 1    
    29   14   83 1    
    30   15   16 1    
    31   15   84 1    
    32   15   85 1    
    33   16   17 1    
    34   17   18 1    
    35   17   86 1    
    36   17   87 1    
    37   18   19 1    
    38   18   37 1    
    39   18   88 1    
    40   19   20 am   BACKBONE|DICT|INTERRES
    41   19   89 1    
    42   20   21 2    
    43   20   22 1    
    44   22   23 1    
    45   22   24 1    
    46   22   90 1    
    47   23   91 1    
    48   23   92 1    
    49   23   93 1    
    50   24   25 am   BACKBONE|DICT|INTERRES
    51   24   94 1    
    52   25   26 2    
    53   25   27 1    
    54   27   28 1    
    55   27   29 1    
    56   27   95 1    
    57   28   96 1    
    58   28   97 1    
    59   28   98 1    
    60   29   30 am   BACKBONE|DICT|INTERRES
    61   29   99 1    
    62   30   31 2    
    63   30   32 1    
    64   32   33 1    
    65   32   34 1    
    66   32  100 1    
    67   33  101 1    
    68   33  102 1    
    69   33  103 1    
    70   34   35 am   BACKBONE|DICT|INTERRES
    71   34  104 1    
    72   35   36 2    
    73   37   38 2    
    74   37   39 am   BACKBONE|DICT|INTERRES
    75   39   40 1    
    76   39  105 1    
    77   40   41 1    
    78   40   42 1    
    79   40  106 1    
    80   41  107 1    
    81   41  108 1    
    82   41  109 1    
    83   42   43 2    
    84   42   44 am   BACKBONE|DICT|INTERRES
    85   44   45 1    
    86   44  110 1    
    87   45   46 1    
    88   45   47 1    
    89   45  111 1    
    90   46  112 1    
    91   46  113 1    
    92   46  114 1    
    93   47   48 2    
    94   47   49 am   BACKBONE|DICT|INTERRES
    95   49   50 1    
    96   49  115 1    
    97   50   51 1    
    98   50   52 1    
    99   50  116 1    
   100   51  117 1    
   101   51  118 1    
   102   51  119 1    
   103   52   53 2    
   104   52   54 am   BACKBONE|DICT|INTERRES
   105   54   55 1    
   106   54  120 1    
   107   55   56 1    
   108   55   57 1    
   109   55  121 1    
   110   56  122 1    
   111   56  123 1    
   112   56  124 1    
   113   57   58 2    
   114   57   59 am   BACKBONE|DICT|INTERRES
   115   59   60 1    
   116   59  125 1    
   117   60   61 1    
   118   60   62 1    
   119   60  126 1    
   120   61  127 1    
   121   61  128 1    
   122   61  129 1    
   123   62   63 2    
   124   62   64 am   BACKBONE|DICT|INTERRES
   125   64   65 1    
   126   64  130 1    
   127   65   66 1    
   128   65   69 1    
   129   65  131 1    
   130   66   67 am   BACKBONE|DICT|INTERRES
   131   66   68 2    
   132   67  132 1    
   133   67  133 1    
   134   69   70 1    
   135   69  134 1    
   136   69  135 1    
   137   70   71 1    
   138   71  136 1    
   139   71  137 1    
@<TRIPOS>SUBSTRUCTURE
     1 UNK         1 GROUP             0       ****    0 ROOT    
