@<TRIPOS>MOLECULE
3R136
137   139    1
SMALL
USER_CHARGES


@<TRIPOS>ATOM
      1 CA         32.4468   26.5063    0.3678 C.3       0 UNK        -0.1979 
      2 C          32.7820   25.0191    0.4333 C.2       0 UNK         0.4864 
      3 O          33.8831   24.6361    0.0437 O.2       0 UNK        -0.5359 
      4 N          31.8891   24.1405    0.9153 N.am      1 UNK        -0.4318 
      5 CA         30.5217   24.3945    1.3993 C.3       1 UNK         0.0824 
      6 C6         29.8917   23.1123    2.0018 C.3       12 UNK        -0.0944 
      7 S7         30.8680   22.4455    3.3934 S.3       12 UNK        -0.2672 
      8 C8         29.6582   22.4599    4.7605 C.3       12 UNK         0.0333 
      9 C9         29.0810   23.8421    5.0477 C.ar      12 UNK        -0.0807 
     10 C10        29.9198   24.9518    5.1866 C.ar      12 UNK        -0.0894 
     11 C11        29.3896   26.2233    5.4235 C.ar      12 UNK        -0.0804 
     12 C12        28.0063   26.3727    5.5664 C.ar      12 UNK        -0.0824 
     13 C13        27.1569   25.2655    5.4649 C.ar      12 UNK        -0.0762 
     14 C14        27.6998   24.0062    5.1934 C.ar      12 UNK        -0.0782 
     15 C15        25.6579   25.4134    5.6933 C.3       12 UNK         0.0230 
     16 S16        24.7138   25.4767    4.1372 S.3       12 UNK        -0.2608 
     17 C17        25.1219   27.1460    3.5276 C.3       12 UNK        -0.0989 
     18 CA         25.7730   27.1058    2.1242 C.3       5 UNK         0.0716 
     19 N          24.8225   26.6271    1.1109 N.am      5 UNK        -0.4135 
     20 C          24.9846   26.6256   -0.2184 C.2       4 UNK         0.5031 
     21 O          25.9235   27.1534   -0.8196 O.2       4 UNK        -0.5229 
     22 CA         23.9219   25.8858   -1.0371 C.3       4 UNK         0.0329 
     23 CB         22.8369   26.8471   -1.5490 C.3       4 UNK        -0.2001 
     24 N          24.6378   25.3027   -2.1627 N.am      4 UNK        -0.4303 
     25 C          24.5403   24.0456   -2.5998 C.2       3 UNK         0.5044 
     26 O          23.6504   23.2626   -2.2652 O.2       3 UNK        -0.5152 
     27 CA         25.6552   23.5741   -3.5522 C.3       3 UNK         0.0319 
     28 CB         25.2447   23.8010   -5.0162 C.3       3 UNK        -0.2001 
     29 N          26.9552   24.2173   -3.3048 N.am      3 UNK        -0.4354 
     30 C          27.6877   24.0704   -2.1891 C.2       2 UNK         0.4964 
     31 O          27.3422   23.3621   -1.2403 O.2       2 UNK        -0.5047 
     32 CA         29.0536   24.7888   -2.1697 C.3       2 UNK         0.0288 
     33 CB         28.9508   26.3038   -2.4537 C.3       2 UNK        -0.2113 
     34 N          29.8207   24.5232   -0.9449 N.am      2 UNK        -0.4145 
     35 C          29.5892   24.9577    0.3064 C.2       1 UNK         0.5006 
     36 O          28.7227   25.7728    0.6264 O.2       1 UNK        -0.5103 
     37 C          26.4014   28.4743    1.7915 C.2       5 UNK         0.5055 
     38 O          25.7079   29.4943    1.8386 O.2       5 UNK        -0.5220 
     39 N          27.7020   28.4578    1.4769 N.am      6 UNK        -0.4450 
     40 CA         28.5371   29.6430    1.2848 C.3       6 UNK         0.0367 
     41 CB         29.8458   29.2096    0.6014 C.3       6 UNK        -0.1929 
     42 C          28.8286   30.3703    2.6131 C.2       6 UNK         0.5070 
     43 O          28.4814   29.8811    3.6916 O.2       6 UNK        -0.5237 
     44 N          29.4845   31.5330    2.5098 N.am      7 UNK        -0.4739 
     45 CA         30.0039   32.2861    3.6530 C.3       7 UNK         0.0276 
     46 CB         30.4634   33.6729    3.1750 C.3       7 UNK        -0.1927 
     47 C          31.1723   31.5412    4.3182 C.2       7 UNK         0.5013 
     48 O          31.9895   30.9433    3.6142 O.2       7 UNK        -0.5193 
     49 N          31.2713   31.6411    5.6508 N.am      8 UNK        -0.4253 
     50 CA         32.2684   30.9522    6.4830 C.3       8 UNK         0.0242 
     51 CB         32.0120   31.2875    7.9610 C.3       8 UNK        -0.2000 
     52 C          33.7396   31.2297    6.1154 C.2       8 UNK         0.4948 
     53 O          34.5938   30.3899    6.3956 O.2       8 UNK        -0.5275 
     54 N          34.0063   32.3794    5.4799 N.am      9 UNK        -0.4246 
     55 CA         35.3098   32.7422    4.9208 C.3       9 UNK         0.0261 
     56 CB         35.3212   34.2476    4.6082 C.3       9 UNK        -0.1959 
     57 C          35.6888   31.9311    3.6655 C.2       9 UNK         0.5033 
     58 O          36.8819   31.7732    3.4017 O.2       9 UNK        -0.5390 
     59 N          34.6916   31.4464    2.9104 N.am      10 UNK        -0.4215 
     60 CA         34.8836   30.6024    1.7287 C.3       10 UNK         0.0240 
     61 CB         33.7509   30.8593    0.7199 C.3       10 UNK        -0.1982 
     62 C          34.9409   29.1138    2.1025 C.2       10 UNK         0.4970 
     63 O          35.6740   28.3636    1.4575 O.2       10 UNK        -0.4916 
     64 N          34.1653   28.7148    3.1193 N.am      11 UNK        -0.4279 
     65 CA         34.1156   27.3519    3.6693 C.3       11 UNK         0.1003 
     66 C          35.4731   26.8642    4.2496 C.2       11 UNK         0.5709 
     67 N          35.7210   25.5612    4.2271 N.am      11 UNK        -0.7358 
     68 O          36.2833   27.6409    4.7515 O.2       11 UNK        -0.4999 
     69 C69        32.9896   27.2080    4.7240 C.3       12 UNK        -0.0954 
     70 S70        31.3479   27.6508    4.0672 S.3       12 UNK        -0.2268 
     71 C71        30.3080   27.4322    5.5455 C.3       12 UNK         0.0203 
     72 H72        31.8293   26.7262   -0.5023 H         1 UNK         0.0888 
     73 H73        31.9259   26.8349    1.2639 H         1 UNK         0.0888 
     74 H74        33.3587   27.0969    0.2852 H         1 UNK         0.0888 
     75 H75        32.1742   23.1734    0.9779 H         1 UNK         0.3017 
     76 H76        30.5812   25.1431    2.1921 H         1 UNK         0.0873 
     77 H77        29.8082   22.3305    1.2442 H         1 UNK         0.0745 
     78 H78        28.8717   23.3101    2.3379 H         1 UNK         0.0745 
     79 H79        30.1448   22.0890    5.6633 H         1 UNK         0.0705 
     80 H80        28.8637   21.7502    4.5241 H         1 UNK         0.0705 
     81 H81        30.9888   24.8279    5.0871 H         1 UNK         0.1334 
     82 H82        27.5938   27.3509    5.7721 H         1 UNK         0.1417 
     83 H83        27.0423   23.1514    5.1077 H         1 UNK         0.1562 
     84 H84        25.4426   26.3022    6.2886 H         1 UNK         0.0748 
     85 H85        25.2993   24.5675    6.2818 H         1 UNK         0.0748 
     86 H86        25.7810   27.6388    4.2440 H         1 UNK         0.0940 
     87 H87        24.2089   27.7446    3.5105 H         1 UNK         0.0940 
     88 H88        26.5806   26.3714    2.1573 H         1 UNK         0.0703 
     89 H89        24.0018   26.1760    1.4875 H         1 UNK         0.3081 
     90 H90        23.4694   25.1033   -0.4237 H         1 UNK         0.0719 
     91 H91        22.2926   27.2991   -0.7189 H         1 UNK         0.0809 
     92 H92        23.2630   27.6577   -2.1418 H         1 UNK         0.0809 
     93 H93        22.1089   26.3253   -2.1704 H         1 UNK         0.0809 
     94 H94        25.4455   25.8451   -2.4442 H         1 UNK         0.2990 
     95 H95        25.7824   22.5006   -3.3968 H         1 UNK         0.0690 
     96 H96        25.1263   24.8612   -5.2437 H         1 UNK         0.0788 
     97 H97        24.2934   23.3131   -5.2342 H         1 UNK         0.0788 
     98 H98        25.9826   23.3887   -5.7047 H         1 UNK         0.0788 
     99 H99        27.3171   24.7976   -4.0482 H         1 UNK         0.2993 
    100 H100       29.6351   24.3436   -2.9788 H         1 UNK         0.0949 
    101 H101       28.3277   26.8163   -1.7219 H         1 UNK         0.0767 
    102 H102       29.9337   26.7743   -2.4365 H         1 UNK         0.0767 
    103 H103       28.5219   26.5007   -3.4363 H         1 UNK         0.0767 
    104 H104       30.5599   23.8428   -1.0527 H         1 UNK         0.3013 
    105 H105       28.1634   27.5569    1.3914 H         1 UNK         0.3121 
    106 H106       28.0046   30.3316    0.6256 H         1 UNK         0.0774 
    107 H107       30.4377   30.0714    0.2929 H         1 UNK         0.0815 
    108 H108       30.4629   28.6172    1.2759 H         1 UNK         0.0815 
    109 H109       29.6543   28.6144   -0.2918 H         1 UNK         0.0815 
    110 H110       29.7631   31.8551    1.5947 H         1 UNK         0.2987 
    111 H111       29.1974   32.4087    4.3794 H         1 UNK         0.0949 
    112 H112       29.6447   34.2249    2.7128 H         1 UNK         0.0806 
    113 H113       30.8262   34.2751    4.0091 H         1 UNK         0.0806 
    114 H114       31.2735   33.6021    2.4476 H         1 UNK         0.0806 
    115 H115       30.5723   32.1763    6.1461 H         1 UNK         0.3010 
    116 H116       32.1069   29.8815    6.3465 H         1 UNK         0.0829 
    117 H117       31.0120   30.9833    8.2707 H         1 UNK         0.0813 
    118 H118       32.7198   30.7672    8.6083 H         1 UNK         0.0813 
    119 H119       32.1162   32.3554    8.1566 H         1 UNK         0.0813 
    120 H120       33.2424   33.0170    5.3102 H         1 UNK         0.3038 
    121 H121       36.0706   32.5455    5.6794 H         1 UNK         0.0769 
    122 H122       36.2913   34.5566    4.2160 H         1 UNK         0.0811 
    123 H123       35.1325   34.8410    5.5031 H         1 UNK         0.0811 
    124 H124       34.5699   34.5122    3.8631 H         1 UNK         0.0811 
    125 H125       33.7303   31.5572    3.2235 H         1 UNK         0.3204 
    126 H126       35.8277   30.8638    1.2456 H         1 UNK         0.0748 
    127 H127       33.9018   30.2771   -0.1901 H         1 UNK         0.0771 
    128 H128       32.7763   30.5828    1.1228 H         1 UNK         0.0771 
    129 H129       33.7082   31.9093    0.4304 H         1 UNK         0.0771 
    130 H130       33.5512   29.3897    3.5563 H         1 UNK         0.2980 
    131 H131       33.8766   26.6918    2.8351 H         1 UNK         0.0545 
    132 H132       35.0641   24.9093    3.8279 H         1 UNK         0.3459 
    133 H133       36.5895   25.2234    4.6112 H         1 UNK         0.3459 
    134 H134       32.9408   26.1822    5.0926 H         1 UNK         0.0616 
    135 H135       33.2014   27.8383    5.5894 H         1 UNK         0.0616 
    136 H136       30.9269   27.3261    6.4371 H         1 UNK         0.0634 
    137 H137       29.7269   28.3452    5.6839 H         1 UNK         0.0634 
@<TRIPOS>BOND
     1    1    2 1    
     2    1   72 1    
     3    1   73 1    
     4    1   74 1    
     5    2    3 2    
     6    2    4 am   BACKBONE|DICT|INTERRES
     7    4    5 1    
     8    4   75 1    
     9    5    6 1    
    10    5   35 1    
    11    5   76 1    
    12    6    7 1    
    13    6   77 1    
    14    6   78 1    
    15    7    8 1    
    16    8    9 1    
    17    8   79 1    
    18    8   80 1    
    19    9   10 ar   
    20    9   14 ar   
    21   10   11 ar   
    22   10   81 1    
    23   11   12 ar   
    24   11   71 1    
    25   12   13 ar   
    26   12   82 1    
    27   13   14 ar   
    28   13   15 1    
    29   14   83 1    
    30   15   16 1    
    31   15   84 1    
    32   15   85 1    
    33   16   17 1    
    34   17   18 1    
    35   17   86 1    
    36   17   87 1    
    37   18   19 1    
    38   18   37 1    
    39   18   88 1    
    40   19   20 am   BACKBONE|DICT|INTERRES
    41   19   89 1    
    42   20   21 2    
    43   20   22 1    
    44   22   23 1    
    45   22   24 1    
    46   22   90 1    
    47   23   91 1    
    48   23   92 1    
    49   23   93 1    
    50   24   25 am   BACKBONE|DICT|INTERRES
    51   24   94 1    
    52   25   26 2    
    53   25   27 1    
    54   27   28 1    
    55   27   29 1    
    56   27   95 1    
    57   28   96 1    
    58   28   97 1    
    59   28   98 1    
    60   29   30 am   BACKBONE|DICT|INTERRES
    61   29   99 1    
    62   30   31 2    
    63   30   32 1    
    64   32   33 1    
    65   32   34 1    
    66   32  100 1    
    67   33  101 1    
    68   33  102 1    
    69   33  103 1    
    70   34   35 am   BACKBONE|DICT|INTERRES
    71   34  104 1    
    72   35   36 2    
    73   37   38 2    
    74   37   39 am   BACKBONE|DICT|INTERRES
    75   39   40 1    
    76   39  105 1    
    77   40   41 1    
    78   40   42 1    
    79   40  106 1    
    80   41  107 1    
    81   41  108 1    
    82   41  109 1    
    83   42   43 2    
    84   42   44 am   BACKBONE|DICT|INTERRES
    85   44   45 1    
    86   44  110 1    
    87   45   46 1    
    88   45   47 1    
    89   45  111 1    
    90   46  112 1    
    91   46  113 1    
    92   46  114 1    
    93   47   48 2    
    94   47   49 am   BACKBONE|DICT|INTERRES
    95   49   50 1    
    96   49  115 1    
    97   50   51 1    
    98   50   52 1    
    99   50  116 1    
   100   51  117 1    
   101   51  118 1    
   102   51  119 1    
   103   52   53 2    
   104   52   54 am   BACKBONE|DICT|INTERRES
   105   54   55 1    
   106   54  120 1    
   107   55   56 1    
   108   55   57 1    
   109   55  121 1    
   110   56  122 1    
   111   56  123 1    
   112   56  124 1    
   113   57   58 2    
   114   57   59 am   BACKBONE|DICT|INTERRES
   115   59   60 1    
   116   59  125 1    
   117   60   61 1    
   118   60   62 1    
   119   60  126 1    
   120   61  127 1    
   121   61  128 1    
   122   61  129 1    
   123   62   63 2    
   124   62   64 am   BACKBONE|DICT|INTERRES
   125   64   65 1    
   126   64  130 1    
   127   65   66 1    
   128   65   69 1    
   129   65  131 1    
   130   66   67 am   BACKBONE|DICT|INTERRES
   131   66   68 2    
   132   67  132 1    
   133   67  133 1    
   134   69   70 1    
   135   69  134 1    
   136   69  135 1    
   137   70   71 1    
   138   71  136 1    
   139   71  137 1    
@<TRIPOS>SUBSTRUCTURE
     1 UNK         1 GROUP             0       ****    0 ROOT    
