@<TRIPOS>MOLECULE
3R136
137   139    1
SMALL
USER_CHARGES


@<TRIPOS>ATOM
      1 CA         29.7048   24.5027    4.4063 C.3       0 UNK        -0.1979 
      2 C          29.2746   23.3502    3.5141 C.2       0 UNK         0.4864 
      3 O          29.0080   22.2564    4.0130 O.2       0 UNK        -0.5359 
      4 N          29.1996   23.5917    2.1985 N.am      1 UNK        -0.4318 
      5 CA         28.6925   22.6420    1.2013 C.3       1 UNK         0.0824 
      6 C6         29.0981   23.0503   -0.2421 C.3       12 UNK        -0.0944 
      7 S7         30.7451   22.4739   -0.7845 S.3       12 UNK        -0.2672 
      8 C8         31.8939   22.9194    0.5670 C.3       12 UNK         0.0333 
      9 C9         32.0692   24.4180    0.8182 C.ar      12 UNK        -0.0807 
     10 C10        32.3875   24.8527    2.1089 C.ar      12 UNK        -0.0894 
     11 C11        32.5991   26.2078    2.3769 C.ar      12 UNK        -0.0804 
     12 C12        32.4803   27.1402    1.3429 C.ar      12 UNK        -0.0824 
     13 C13        32.1682   26.7236    0.0461 C.ar      12 UNK        -0.0762 
     14 C14        31.9769   25.3618   -0.2121 C.ar      12 UNK        -0.0782 
     15 C15        32.0778   27.7426   -1.0814 C.3       12 UNK         0.0230 
     16 S16        30.4806   28.6161   -1.0976 S.3       12 UNK        -0.2608 
     17 C17        29.3456   27.3062   -1.6772 C.3       12 UNK        -0.0989 
     18 CA         27.9143   27.4201   -1.0875 C.3       5 UNK         0.0716 
     19 N          26.9831   26.4885   -1.7153 N.am      5 UNK        -0.4135 
     20 C          26.5231   26.5820   -2.9692 C.2       4 UNK         0.5031 
     21 O          26.8312   27.4837   -3.7496 O.2       4 UNK        -0.5229 
     22 CA         25.5515   25.4872   -3.4380 C.3       4 UNK         0.0329 
     23 CB         26.3239   24.2315   -3.8749 C.3       4 UNK        -0.2001 
     24 N          24.5744   25.1235   -2.4128 N.am      4 UNK        -0.4303 
     25 C          23.5586   25.8893   -1.9973 C.2       3 UNK         0.5044 
     26 O          23.2989   26.9967   -2.4688 O.2       3 UNK        -0.5152 
     27 CA         22.6886   25.3354   -0.8521 C.3       3 UNK         0.0319 
     28 CB         21.7501   24.2172   -1.3482 C.3       3 UNK        -0.2001 
     29 N          23.4507   24.9212    0.3372 N.am      3 UNK        -0.4354 
     30 C          24.3469   23.9305    0.4555 C.2       2 UNK         0.4964 
     31 O          24.6382   23.1546   -0.4572 O.2       2 UNK        -0.5047 
     32 CA         25.0425   23.8189    1.8196 C.3       2 UNK         0.0288 
     33 CB         24.3705   22.7668    2.7238 C.3       2 UNK        -0.2113 
     34 N          26.4854   23.6015    1.6732 N.am      2 UNK        -0.4145 
     35 C          27.1596   22.4920    1.3257 C.2       1 UNK         0.5006 
     36 O          26.6497   21.3875    1.1286 O.2       1 UNK        -0.5103 
     37 C          27.8899   27.1636    0.4282 C.2       5 UNK         0.5055 
     38 O          27.7591   26.0142    0.8584 O.2       5 UNK        -0.5220 
     39 N          28.0446   28.2394    1.2018 N.am      6 UNK        -0.4450 
     40 CA         28.2233   28.2445    2.6509 C.3       6 UNK         0.0367 
     41 CB         26.9020   27.9133    3.3761 C.3       6 UNK        -0.1929 
     42 C          28.8145   29.6064    3.0453 C.2       6 UNK         0.5070 
     43 O          28.2699   30.2961    3.9086 O.2       6 UNK        -0.5237 
     44 N          29.8851   30.0037    2.3429 N.am      7 UNK        -0.4739 
     45 CA         30.5774   31.2811    2.5100 C.3       7 UNK         0.0276 
     46 CB         31.5343   31.4906    1.3227 C.3       7 UNK        -0.1927 
     47 C          31.3319   31.3315    3.8466 C.2       7 UNK         0.5013 
     48 O          32.4205   30.7636    3.9456 O.2       7 UNK        -0.5193 
     49 N          30.7543   32.0161    4.8439 N.am      8 UNK        -0.4253 
     50 CA         31.2589   32.1228    6.2203 C.3       8 UNK         0.0242 
     51 CB         30.3191   33.0224    7.0385 C.3       8 UNK        -0.2000 
     52 C          32.7133   32.6114    6.3484 C.2       8 UNK         0.4948 
     53 O          33.4107   32.1831    7.2676 O.2       8 UNK        -0.5275 
     54 N          33.1594   33.4538    5.4057 N.am      9 UNK        -0.4246 
     55 CA         34.5454   33.9142    5.2823 C.3       9 UNK         0.0261 
     56 CB         34.6186   35.0140    4.2106 C.3       9 UNK        -0.1959 
     57 C          35.5495   32.7875    4.9660 C.2       9 UNK         0.5033 
     58 O          36.7183   32.9129    5.3347 O.2       9 UNK        -0.5390 
     59 N          35.0871   31.7192    4.3018 N.am      10 UNK        -0.4215 
     60 CA         35.8610   30.5103    4.0263 C.3       10 UNK         0.0240 
     61 CB         35.5197   29.9894    2.6189 C.3       10 UNK        -0.1982 
     62 C          35.5824   29.4309    5.0820 C.2       10 UNK         0.4970 
     63 O          36.5246   28.7786    5.5330 O.2       10 UNK        -0.4916 
     64 N          34.3036   29.2457    5.4395 N.am      11 UNK        -0.4279 
     65 CA         33.8474   28.2052    6.3738 C.3       11 UNK         0.1003 
     66 C          34.2540   28.4453    7.8551 C.2       11 UNK         0.5709 
     67 N          34.4448   29.6802    8.3026 N.am      11 UNK        -0.7358 
     68 O          34.4067   27.4883    8.6105 O.2       11 UNK        -0.4999 
     69 C69        32.3195   27.9471    6.2625 C.3       12 UNK        -0.0954 
     70 S70        31.6572   27.5573    4.6015 S.3       12 UNK        -0.2268 
     71 C71        33.0047   26.6617    3.7698 C.3       12 UNK         0.0203 
     72 H72        28.9738   24.6616    5.1983 H         1 UNK         0.0888 
     73 H73        29.7953   25.4289    3.8416 H         1 UNK         0.0888 
     74 H74        30.6686   24.2880    4.8666 H         1 UNK         0.0888 
     75 H75        29.4223   24.5130    1.8450 H         1 UNK         0.3017 
     76 H76        29.1178   21.6591    1.4155 H         1 UNK         0.0873 
     77 H77        29.0489   24.1310   -0.3746 H         1 UNK         0.0745 
     78 H78        28.3958   22.6398   -0.9711 H         1 UNK         0.0745 
     79 H79        31.5805   22.4094    1.4785 H         1 UNK         0.0705 
     80 H80        32.8734   22.5086    0.3198 H         1 UNK         0.0705 
     81 H81        32.4901   24.1292    2.9062 H         1 UNK         0.1334 
     82 H82        32.6464   28.1890    1.5481 H         1 UNK         0.1417 
     83 H83        31.7641   25.0373   -1.2211 H         1 UNK         0.1562 
     84 H84        32.2404   27.2660   -2.0495 H         1 UNK         0.0748 
     85 H85        32.8764   28.4776   -0.9689 H         1 UNK         0.0748 
     86 H86        29.7566   26.3202   -1.4644 H         1 UNK         0.0940 
     87 H87        29.3144   27.3801   -2.7648 H         1 UNK         0.0940 
     88 H88        27.5352   28.4285   -1.2686 H         1 UNK         0.0703 
     89 H89        26.6788   25.7323   -1.1172 H         1 UNK         0.3081 
     90 H90        25.0074   25.8718   -4.3034 H         1 UNK         0.0719 
     91 H91        26.8652   23.7774   -3.0437 H         1 UNK         0.0809 
     92 H92        25.6528   23.4782   -4.2879 H         1 UNK         0.0809 
     93 H93        27.0547   24.4720   -4.6485 H         1 UNK         0.0809 
     94 H94        24.7048   24.2356   -1.9315 H         1 UNK         0.2990 
     95 H95        22.0557   26.1597   -0.5187 H         1 UNK         0.0690 
     96 H96        21.0811   23.8823   -0.5555 H         1 UNK         0.0788 
     97 H97        22.2986   23.3479   -1.7117 H         1 UNK         0.0788 
     98 H98        21.1263   24.5711   -2.1701 H         1 UNK         0.0788 
     99 H99        23.2980   25.5051    1.1484 H         1 UNK         0.2993 
    100 H100       24.9552   24.7842    2.3213 H         1 UNK         0.0949 
    101 H101       23.3427   23.0522    2.9511 H         1 UNK         0.0767 
    102 H102       24.3319   21.7850    2.2510 H         1 UNK         0.0767 
    103 H103       24.8972   22.6634    3.6727 H         1 UNK         0.0767 
    104 H104       27.0362   24.4564    1.6980 H         1 UNK         0.3013 
    105 H105       28.1513   29.1421    0.7572 H         1 UNK         0.3121 
    106 H106       28.9652   27.4884    2.9134 H         1 UNK         0.0774 
    107 H107       26.5428   26.9164    3.1224 H         1 UNK         0.0815 
    108 H108       26.1175   28.6277    3.1248 H         1 UNK         0.0815 
    109 H109       27.0355   27.9389    4.4583 H         1 UNK         0.0815 
    110 H110       30.2862   29.3621    1.6732 H         1 UNK         0.2987 
    111 H111       29.8365   32.0834    2.4920 H         1 UNK         0.0949 
    112 H112       32.2744   30.6927    1.2496 H         1 UNK         0.0806 
    113 H113       30.9916   31.5280    0.3780 H         1 UNK         0.0806 
    114 H114       32.0788   32.4306    1.4205 H         1 UNK         0.0806 
    115 H115       29.8398   32.4113    4.6746 H         1 UNK         0.3010 
    116 H116       31.2229   31.1200    6.6489 H         1 UNK         0.0829 
    117 H117       29.3052   32.6221    7.0604 H         1 UNK         0.0813 
    118 H118       30.6557   33.1005    8.0735 H         1 UNK         0.0813 
    119 H119       30.2735   34.0340    6.6332 H         1 UNK         0.0813 
    120 H120       32.5115   33.7573    4.6934 H         1 UNK         0.3038 
    121 H121       34.8362   34.3494    6.2408 H         1 UNK         0.0769 
    122 H122       34.3171   34.6437    3.2298 H         1 UNK         0.0811 
    123 H123       35.6355   35.3977    4.1150 H         1 UNK         0.0811 
    124 H124       33.9786   35.8595    4.4635 H         1 UNK         0.0811 
    125 H125       34.0959   31.6677    4.0834 H         1 UNK         0.3204 
    126 H126       36.9292   30.7367    4.0495 H         1 UNK         0.0748 
    127 H127       35.7526   30.7324    1.8561 H         1 UNK         0.0771 
    128 H128       36.0950   29.0927    2.3851 H         1 UNK         0.0771 
    129 H129       34.4643   29.7326    2.5224 H         1 UNK         0.0771 
    130 H130       33.5753   29.7902    4.9841 H         1 UNK         0.2980 
    131 H131       34.3527   27.2814    6.0879 H         1 UNK         0.0545 
    132 H132       34.7152   29.8142    9.2633 H         1 UNK         0.3459 
    133 H133       34.2426   30.4895    7.7241 H         1 UNK         0.3459 
    134 H134       32.0372   27.1183    6.9143 H         1 UNK         0.0616 
    135 H135       31.7695   28.8139    6.6305 H         1 UNK         0.0616 
    136 H136       33.2994   25.8094    4.3837 H         1 UNK         0.0634 
    137 H137       33.8818   27.3003    3.6753 H         1 UNK         0.0634 
@<TRIPOS>BOND
     1    1    2 1    
     2    1   72 1    
     3    1   73 1    
     4    1   74 1    
     5    2    3 2    
     6    2    4 am   BACKBONE|DICT|INTERRES
     7    4    5 1    
     8    4   75 1    
     9    5    6 1    
    10    5   35 1    
    11    5   76 1    
    12    6    7 1    
    13    6   77 1    
    14    6   78 1    
    15    7    8 1    
    16    8    9 1    
    17    8   79 1    
    18    8   80 1    
    19    9   10 ar   
    20    9   14 ar   
    21   10   11 ar   
    22   10   81 1    
    23   11   12 ar   
    24   11   71 1    
    25   12   13 ar   
    26   12   82 1    
    27   13   14 ar   
    28   13   15 1    
    29   14   83 1    
    30   15   16 1    
    31   15   84 1    
    32   15   85 1    
    33   16   17 1    
    34   17   18 1    
    35   17   86 1    
    36   17   87 1    
    37   18   19 1    
    38   18   37 1    
    39   18   88 1    
    40   19   20 am   BACKBONE|DICT|INTERRES
    41   19   89 1    
    42   20   21 2    
    43   20   22 1    
    44   22   23 1    
    45   22   24 1    
    46   22   90 1    
    47   23   91 1    
    48   23   92 1    
    49   23   93 1    
    50   24   25 am   BACKBONE|DICT|INTERRES
    51   24   94 1    
    52   25   26 2    
    53   25   27 1    
    54   27   28 1    
    55   27   29 1    
    56   27   95 1    
    57   28   96 1    
    58   28   97 1    
    59   28   98 1    
    60   29   30 am   BACKBONE|DICT|INTERRES
    61   29   99 1    
    62   30   31 2    
    63   30   32 1    
    64   32   33 1    
    65   32   34 1    
    66   32  100 1    
    67   33  101 1    
    68   33  102 1    
    69   33  103 1    
    70   34   35 am   BACKBONE|DICT|INTERRES
    71   34  104 1    
    72   35   36 2    
    73   37   38 2    
    74   37   39 am   BACKBONE|DICT|INTERRES
    75   39   40 1    
    76   39  105 1    
    77   40   41 1    
    78   40   42 1    
    79   40  106 1    
    80   41  107 1    
    81   41  108 1    
    82   41  109 1    
    83   42   43 2    
    84   42   44 am   BACKBONE|DICT|INTERRES
    85   44   45 1    
    86   44  110 1    
    87   45   46 1    
    88   45   47 1    
    89   45  111 1    
    90   46  112 1    
    91   46  113 1    
    92   46  114 1    
    93   47   48 2    
    94   47   49 am   BACKBONE|DICT|INTERRES
    95   49   50 1    
    96   49  115 1    
    97   50   51 1    
    98   50   52 1    
    99   50  116 1    
   100   51  117 1    
   101   51  118 1    
   102   51  119 1    
   103   52   53 2    
   104   52   54 am   BACKBONE|DICT|INTERRES
   105   54   55 1    
   106   54  120 1    
   107   55   56 1    
   108   55   57 1    
   109   55  121 1    
   110   56  122 1    
   111   56  123 1    
   112   56  124 1    
   113   57   58 2    
   114   57   59 am   BACKBONE|DICT|INTERRES
   115   59   60 1    
   116   59  125 1    
   117   60   61 1    
   118   60   62 1    
   119   60  126 1    
   120   61  127 1    
   121   61  128 1    
   122   61  129 1    
   123   62   63 2    
   124   62   64 am   BACKBONE|DICT|INTERRES
   125   64   65 1    
   126   64  130 1    
   127   65   66 1    
   128   65   69 1    
   129   65  131 1    
   130   66   67 am   BACKBONE|DICT|INTERRES
   131   66   68 2    
   132   67  132 1    
   133   67  133 1    
   134   69   70 1    
   135   69  134 1    
   136   69  135 1    
   137   70   71 1    
   138   71  136 1    
   139   71  137 1    
@<TRIPOS>SUBSTRUCTURE
     1 UNK         1 GROUP             0       ****    0 ROOT    
