@<TRIPOS>MOLECULE
3R136
137   139    1
SMALL
USER_CHARGES


@<TRIPOS>ATOM
      1 CA         26.7228   20.7687    4.9143 C.3       0 UNK        -0.1979 
      2 C          27.0999   21.9420    4.0217 C.2       0 UNK         0.4864 
      3 O          26.7595   23.0808    4.3437 O.2       0 UNK        -0.5359 
      4 N          27.7955   21.6613    2.9089 N.am      1 UNK        -0.4318 
      5 CA         28.2777   22.6195    1.9010 C.3       1 UNK         0.0824 
      6 C6         29.3837   23.5817    2.4222 C.3       12 UNK        -0.0944 
      7 S7         30.7669   22.7084    3.2393 S.3       12 UNK        -0.2672 
      8 C8         31.8030   22.1786    1.8361 C.3       12 UNK         0.0333 
      9 C9         32.5587   23.3418    1.2130 C.ar      12 UNK        -0.0807 
     10 C10        33.6376   23.9187    1.8912 C.ar      12 UNK        -0.0894 
     11 C11        34.3141   25.0140    1.3460 C.ar      12 UNK        -0.0804 
     12 C12        33.9231   25.5117    0.1014 C.ar      12 UNK        -0.0824 
     13 C13        32.8335   24.9563   -0.5747 C.ar      12 UNK        -0.0762 
     14 C14        32.1669   23.8568   -0.0266 C.ar      12 UNK        -0.0782 
     15 C15        32.3095   25.6246   -1.8371 C.3       12 UNK         0.0230 
     16 S16        30.7984   26.6043   -1.5156 S.3       12 UNK        -0.2608 
     17 C17        31.0816   27.2388    0.1760 C.3       12 UNK        -0.0989 
     18 CA         30.0620   28.3011    0.6348 C.3       5 UNK         0.0716 
     19 N          28.6731   27.8804    0.4239 N.am      5 UNK        -0.4135 
     20 C          27.5945   28.6405    0.6543 C.2       4 UNK         0.5031 
     21 O          27.6616   29.7927    1.0886 O.2       4 UNK        -0.5229 
     22 CA         26.2222   27.9832    0.4372 C.3       4 UNK         0.0329 
     23 CB         25.1244   28.9946    0.0440 C.3       4 UNK        -0.2001 
     24 N          26.2652   26.8238   -0.4635 N.am      4 UNK        -0.4303 
     25 C          26.3932   26.8069   -1.8009 C.2       3 UNK         0.5044 
     26 O          26.5217   27.8197   -2.4889 O.2       3 UNK        -0.5152 
     27 CA         26.3785   25.4285   -2.5045 C.3       3 UNK         0.0319 
     28 CB         27.7095   25.1598   -3.2266 C.3       3 UNK        -0.2001 
     29 N          26.0990   24.3002   -1.6099 N.am      3 UNK        -0.4354 
     30 C          24.9212   24.0464   -1.0233 C.2       2 UNK         0.4964 
     31 O          23.8864   24.6590   -1.2873 O.2       2 UNK        -0.5047 
     32 CA         24.8869   22.9603    0.0710 C.3       2 UNK         0.0288 
     33 CB         24.1680   21.7033   -0.4474 C.3       2 UNK        -0.2113 
     34 N          26.1825   22.5609    0.6433 N.am      2 UNK        -0.4145 
     35 C          27.0962   23.3544    1.2276 C.2       1 UNK         0.5006 
     36 O          27.0211   24.5858    1.2560 O.2       1 UNK        -0.5103 
     37 C          30.3443   28.6768    2.1038 C.2       5 UNK         0.5055 
     38 O          31.1328   29.5840    2.3521 O.2       5 UNK        -0.5220 
     39 N          29.6711   27.9988    3.0446 N.am      6 UNK        -0.4450 
     40 CA         29.7395   28.2680    4.4827 C.3       6 UNK         0.0367 
     41 CB         29.1679   27.0576    5.2394 C.3       6 UNK        -0.1929 
     42 C          29.0368   29.5719    4.9133 C.2       6 UNK         0.5070 
     43 O          29.2446   30.0140    6.0434 O.2       6 UNK        -0.5237 
     44 N          28.2140   30.1587    4.0322 N.am      7 UNK        -0.4739 
     45 CA         27.6210   31.4840    4.2143 C.3       7 UNK         0.0276 
     46 CB         26.1559   31.4640    3.7469 C.3       7 UNK        -0.1927 
     47 C          28.4241   32.5451    3.4465 C.2       7 UNK         0.5013 
     48 O          28.6342   33.6383    3.9732 O.2       7 UNK        -0.5193 
     49 N          28.8492   32.2129    2.2182 N.am      8 UNK        -0.4253 
     50 CA         29.6040   33.1001    1.3295 C.3       8 UNK         0.0242 
     51 CB         29.5814   32.5225   -0.0948 C.3       8 UNK        -0.2000 
     52 C          31.0542   33.3562    1.7799 C.2       8 UNK         0.4948 
     53 O          31.5679   34.4506    1.5421 O.2       8 UNK        -0.5275 
     54 N          31.6900   32.3545    2.3961 N.am      9 UNK        -0.4246 
     55 CA         33.0710   32.3740    2.8731 C.3       9 UNK         0.0261 
     56 CB         33.9403   31.5595    1.8938 C.3       9 UNK        -0.1959 
     57 C          33.1377   31.8074    4.3008 C.2       9 UNK         0.5033 
     58 O          32.1099   31.4595    4.8841 O.2       9 UNK        -0.5390 
     59 N          34.3578   31.7198    4.8450 N.am      10 UNK        -0.4215 
     60 CA         34.6539   31.2440    6.2024 C.3       10 UNK         0.0240 
     61 CB         35.9967   31.8526    6.6489 C.3       10 UNK        -0.1982 
     62 C          34.6546   29.7066    6.3631 C.2       10 UNK         0.4970 
     63 O          35.1034   29.2196    7.4025 O.2       10 UNK        -0.4916 
     64 N          34.1899   28.9669    5.3482 N.am      11 UNK        -0.4279 
     65 CA         34.0831   27.4994    5.3364 C.3       11 UNK         0.1003 
     66 C          33.1336   26.9313    6.4301 C.2       11 UNK         0.5709 
     67 N          33.3332   25.6825    6.8300 N.am      11 UNK        -0.7358 
     68 O          32.2067   27.5899    6.8961 O.2       11 UNK        -0.4999 
     69 C69        33.6783   26.9838    3.9318 C.3       12 UNK        -0.0954 
     70 S70        34.9390   27.3657    2.6687 S.3       12 UNK        -0.2268 
     71 C71        35.4340   25.6993    2.1158 C.3       12 UNK         0.0203 
     72 H72        27.0857   19.8202    4.5188 H         1 UNK         0.0888 
     73 H73        27.1460   20.9043    5.9093 H         1 UNK         0.0888 
     74 H74        25.6393   20.7036    5.0105 H         1 UNK         0.0888 
     75 H75        28.0401   20.6976    2.7283 H         1 UNK         0.3017 
     76 H76        28.7313   22.0174    1.1125 H         1 UNK         0.0873 
     77 H77        28.9652   24.2816    3.1478 H         1 UNK         0.0745 
     78 H78        29.7778   24.1935    1.6094 H         1 UNK         0.0745 
     79 H79        32.5211   21.4389    2.1929 H         1 UNK         0.0705 
     80 H80        31.1863   21.6684    1.0950 H         1 UNK         0.0705 
     81 H81        33.9272   23.5324    2.8591 H         1 UNK         0.1334 
     82 H82        34.4276   26.3772   -0.3067 H         1 UNK         0.1417 
     83 H83        31.3139   23.4379   -0.5430 H         1 UNK         0.1562 
     84 H84        32.0942   24.8702   -2.5952 H         1 UNK         0.0748 
     85 H85        33.0690   26.2807   -2.2653 H         1 UNK         0.0748 
     86 H86        32.0896   27.6566    0.2232 H         1 UNK         0.0940 
     87 H87        31.0670   26.3897    0.8627 H         1 UNK         0.0940 
     88 H88        30.2172   29.1976    0.0324 H         1 UNK         0.0703 
     89 H89        28.5371   26.9500    0.0567 H         1 UNK         0.3081 
     90 H90        25.9432   27.5759    1.4101 H         1 UNK         0.0719 
     91 H91        25.3779   29.5378   -0.8665 H         1 UNK         0.0809 
     92 H92        24.1658   28.5003   -0.1129 H         1 UNK         0.0809 
     93 H93        24.9801   29.7373    0.8295 H         1 UNK         0.0809 
     94 H94        26.2447   25.9255    0.0112 H         1 UNK         0.2990 
     95 H95        25.5877   25.4691   -3.2563 H         1 UNK         0.0690 
     96 H96        27.9777   25.9863   -3.8864 H         1 UNK         0.0788 
     97 H97        27.6498   24.2632   -3.8438 H         1 UNK         0.0788 
     98 H98        28.5293   25.0252   -2.5215 H         1 UNK         0.0788 
     99 H99        26.8904   23.7371   -1.3364 H         1 UNK         0.2993 
    100 H100       24.2970   23.3736    0.8920 H         1 UNK         0.0949 
    101 H101       24.7318   21.2173   -1.2448 H         1 UNK         0.0767 
    102 H102       24.0143   20.9751    0.3494 H         1 UNK         0.0767 
    103 H103       23.1837   21.9502   -0.8484 H         1 UNK         0.0767 
    104 H104       26.3480   21.5652    0.6782 H         1 UNK         0.3013 
    105 H105       29.0383   27.2691    2.7511 H         1 UNK         0.3121 
    106 H106       30.7907   28.3786    4.7545 H         1 UNK         0.0774 
    107 H107       28.1173   26.8882    5.0006 H         1 UNK         0.0815 
    108 H108       29.2390   27.2061    6.3179 H         1 UNK         0.0815 
    109 H109       29.7202   26.1469    5.0060 H         1 UNK         0.0815 
    110 H110       28.0948   29.7378    3.1188 H         1 UNK         0.2987 
    111 H111       27.6300   31.7614    5.2708 H         1 UNK         0.0949 
    112 H112       26.0665   31.2266    2.6866 H         1 UNK         0.0806 
    113 H113       25.5732   30.7305    4.3041 H         1 UNK         0.0806 
    114 H114       25.6864   32.4363    3.9021 H         1 UNK         0.0806 
    115 H115       28.5708   31.3138    1.8354 H         1 UNK         0.3010 
    116 H116       29.0924   34.0649    1.3107 H         1 UNK         0.0829 
    117 H117       28.5609   32.3800   -0.4511 H         1 UNK         0.0813 
    118 H118       30.0800   33.1934   -0.7957 H         1 UNK         0.0813 
    119 H119       30.0916   31.5607   -0.1461 H         1 UNK         0.0813 
    120 H120       31.2031   31.4770    2.5669 H         1 UNK         0.3038 
    121 H121       33.4402   33.4008    2.9139 H         1 UNK         0.0769 
    122 H122       33.6630   30.5042    1.8903 H         1 UNK         0.0811 
    123 H123       34.9990   31.6190    2.1466 H         1 UNK         0.0811 
    124 H124       33.8371   31.9309    0.8741 H         1 UNK         0.0811 
    125 H125       35.1530   32.0115    4.2945 H         1 UNK         0.3204 
    126 H126       33.8789   31.6228    6.8722 H         1 UNK         0.0748 
    127 H127       36.8260   31.4886    6.0409 H         1 UNK         0.0771 
    128 H128       35.9819   32.9407    6.5817 H         1 UNK         0.0771 
    129 H129       36.2193   31.6021    7.6871 H         1 UNK         0.0771 
    130 H130       33.8091   29.4419    4.5446 H         1 UNK         0.2980 
    131 H131       35.0804   27.1161    5.5613 H         1 UNK         0.0545 
    132 H132       32.7224   25.2919    7.5299 H         1 UNK         0.3459 
    133 H133       34.0848   25.1258    6.4547 H         1 UNK         0.3459 
    134 H134       33.5115   25.9060    3.9536 H         1 UNK         0.0616 
    135 H135       32.7327   27.4258    3.6159 H         1 UNK         0.0616 
    136 H136       36.3109   25.7862    1.4728 H         1 UNK         0.0634 
    137 H137       35.7405   25.1065    2.9790 H         1 UNK         0.0634 
@<TRIPOS>BOND
     1    1    2 1    
     2    1   72 1    
     3    1   73 1    
     4    1   74 1    
     5    2    3 2    
     6    2    4 am   BACKBONE|DICT|INTERRES
     7    4    5 1    
     8    4   75 1    
     9    5    6 1    
    10    5   35 1    
    11    5   76 1    
    12    6    7 1    
    13    6   77 1    
    14    6   78 1    
    15    7    8 1    
    16    8    9 1    
    17    8   79 1    
    18    8   80 1    
    19    9   10 ar   
    20    9   14 ar   
    21   10   11 ar   
    22   10   81 1    
    23   11   12 ar   
    24   11   71 1    
    25   12   13 ar   
    26   12   82 1    
    27   13   14 ar   
    28   13   15 1    
    29   14   83 1    
    30   15   16 1    
    31   15   84 1    
    32   15   85 1    
    33   16   17 1    
    34   17   18 1    
    35   17   86 1    
    36   17   87 1    
    37   18   19 1    
    38   18   37 1    
    39   18   88 1    
    40   19   20 am   BACKBONE|DICT|INTERRES
    41   19   89 1    
    42   20   21 2    
    43   20   22 1    
    44   22   23 1    
    45   22   24 1    
    46   22   90 1    
    47   23   91 1    
    48   23   92 1    
    49   23   93 1    
    50   24   25 am   BACKBONE|DICT|INTERRES
    51   24   94 1    
    52   25   26 2    
    53   25   27 1    
    54   27   28 1    
    55   27   29 1    
    56   27   95 1    
    57   28   96 1    
    58   28   97 1    
    59   28   98 1    
    60   29   30 am   BACKBONE|DICT|INTERRES
    61   29   99 1    
    62   30   31 2    
    63   30   32 1    
    64   32   33 1    
    65   32   34 1    
    66   32  100 1    
    67   33  101 1    
    68   33  102 1    
    69   33  103 1    
    70   34   35 am   BACKBONE|DICT|INTERRES
    71   34  104 1    
    72   35   36 2    
    73   37   38 2    
    74   37   39 am   BACKBONE|DICT|INTERRES
    75   39   40 1    
    76   39  105 1    
    77   40   41 1    
    78   40   42 1    
    79   40  106 1    
    80   41  107 1    
    81   41  108 1    
    82   41  109 1    
    83   42   43 2    
    84   42   44 am   BACKBONE|DICT|INTERRES
    85   44   45 1    
    86   44  110 1    
    87   45   46 1    
    88   45   47 1    
    89   45  111 1    
    90   46  112 1    
    91   46  113 1    
    92   46  114 1    
    93   47   48 2    
    94   47   49 am   BACKBONE|DICT|INTERRES
    95   49   50 1    
    96   49  115 1    
    97   50   51 1    
    98   50   52 1    
    99   50  116 1    
   100   51  117 1    
   101   51  118 1    
   102   51  119 1    
   103   52   53 2    
   104   52   54 am   BACKBONE|DICT|INTERRES
   105   54   55 1    
   106   54  120 1    
   107   55   56 1    
   108   55   57 1    
   109   55  121 1    
   110   56  122 1    
   111   56  123 1    
   112   56  124 1    
   113   57   58 2    
   114   57   59 am   BACKBONE|DICT|INTERRES
   115   59   60 1    
   116   59  125 1    
   117   60   61 1    
   118   60   62 1    
   119   60  126 1    
   120   61  127 1    
   121   61  128 1    
   122   61  129 1    
   123   62   63 2    
   124   62   64 am   BACKBONE|DICT|INTERRES
   125   64   65 1    
   126   64  130 1    
   127   65   66 1    
   128   65   69 1    
   129   65  131 1    
   130   66   67 am   BACKBONE|DICT|INTERRES
   131   66   68 2    
   132   67  132 1    
   133   67  133 1    
   134   69   70 1    
   135   69  134 1    
   136   69  135 1    
   137   70   71 1    
   138   71  136 1    
   139   71  137 1    
@<TRIPOS>SUBSTRUCTURE
     1 UNK         1 GROUP             0       ****    0 ROOT    
