@<TRIPOS>MOLECULE
3R136
137   139    1
SMALL
USER_CHARGES


@<TRIPOS>ATOM
      1 CA         26.4022   21.7716   -2.7210 C.3       0 UNK        -0.1979 
      2 C          26.9562   22.0697   -1.3371 C.2       0 UNK         0.4864 
      3 O          26.3234   22.7934   -0.5665 O.2       0 UNK        -0.5359 
      4 N          28.1219   21.5003   -0.9991 N.am      1 UNK        -0.4318 
      5 CA         28.8635   21.7292    0.2532 C.3       1 UNK         0.0824 
      6 C6         30.3251   21.2292    0.1693 C.3       12 UNK        -0.0944 
      7 S7         31.2295   21.9826   -1.2275 S.3       12 UNK        -0.2672 
      8 C8         32.7047   22.6910   -0.4229 C.3       12 UNK         0.0333 
      9 C9         32.5572   24.1631   -0.0473 C.ar      12 UNK        -0.0807 
     10 C10        32.8146   24.5870    1.2610 C.ar      12 UNK        -0.0894 
     11 C11        32.8374   25.9500    1.5784 C.ar      12 UNK        -0.0804 
     12 C12        32.5767   26.8928    0.5794 C.ar      12 UNK        -0.0824 
     13 C13        32.3074   26.4846   -0.7321 C.ar      12 UNK        -0.0762 
     14 C14        32.2903   25.1186   -1.0344 C.ar      12 UNK        -0.0782 
     15 C15        32.1426   27.5108   -1.8486 C.3       12 UNK         0.0230 
     16 S16        30.4147   28.0321   -2.0966 S.3       12 UNK        -0.2608 
     17 C17        30.1998   29.2396   -0.7438 C.3       12 UNK        -0.0989 
     18 CA         28.9700   28.9441    0.1541 C.3       5 UNK         0.0716 
     19 N          28.9229   27.5527    0.5940 N.am      5 UNK        -0.4135 
     20 C          27.8123   26.9004    0.9540 C.2       4 UNK         0.5031 
     21 O          26.6953   27.4227    0.9940 O.2       4 UNK        -0.5229 
     22 CA         28.0030   25.4013    1.2406 C.3       4 UNK         0.0329 
     23 CB         29.0126   25.1456    2.3750 C.3       4 UNK        -0.2001 
     24 N          26.7575   24.6635    1.4737 N.am      4 UNK        -0.4303 
     25 C          25.8970   24.7650    2.4994 C.2       3 UNK         0.5044 
     26 O          26.0278   25.5292    3.4562 O.2       3 UNK        -0.5152 
     27 CA         24.6975   23.8039    2.4657 C.3       3 UNK         0.0319 
     28 CB         23.6453   24.2771    1.4487 C.3       3 UNK        -0.2001 
     29 N          25.1434   22.4539    2.1163 N.am      3 UNK        -0.4354 
     30 C          25.3938   21.4754    2.9994 C.2       2 UNK         0.4964 
     31 O          25.1302   21.5467    4.2001 O.2       2 UNK        -0.5047 
     32 CA         26.0810   20.2060    2.4563 C.3       2 UNK         0.0288 
     33 CB         25.0366   19.1924    1.9612 C.3       2 UNK        -0.2113 
     34 N          27.0224   20.5038    1.3734 N.am      2 UNK        -0.4145 
     35 C          28.1561   21.2052    1.5262 C.2       1 UNK         0.5006 
     36 O          28.6302   21.4788    2.6294 O.2       1 UNK        -0.5103 
     37 C          28.9423   29.8680    1.3830 C.2       5 UNK         0.5055 
     38 O          29.9963   30.1387    1.9580 O.2       5 UNK        -0.5220 
     39 N          27.7510   30.3493    1.7611 N.am      6 UNK        -0.4450 
     40 CA         27.5316   31.2314    2.9162 C.3       6 UNK         0.0367 
     41 CB         26.0235   31.4780    3.0819 C.3       6 UNK        -0.1929 
     42 C          28.2928   32.5725    2.8590 C.2       6 UNK         0.5070 
     43 O          28.5263   33.1789    3.9045 O.2       6 UNK        -0.5237 
     44 N          28.6621   33.0094    1.6474 N.am      7 UNK        -0.4739 
     45 CA         29.4639   34.2066    1.3945 C.3       7 UNK         0.0276 
     46 CB         29.1878   34.6903   -0.0391 C.3       7 UNK        -0.1927 
     47 C          30.9765   33.9988    1.6062 C.2       7 UNK         0.5013 
     48 O          31.6943   34.9950    1.7102 O.2       7 UNK        -0.5193 
     49 N          31.4518   32.7440    1.6431 N.am      8 UNK        -0.4253 
     50 CA         32.8604   32.4165    1.8747 C.3       8 UNK         0.0242 
     51 CB         33.1759   31.0368    1.2730 C.3       8 UNK        -0.2000 
     52 C          33.1456   32.4158    3.3800 C.2       8 UNK         0.4948 
     53 O          32.3453   31.8722    4.1405 O.2       8 UNK        -0.5275 
     54 N          34.2959   32.9652    3.7910 N.am      9 UNK        -0.4246 
     55 CA         34.6946   33.1187    5.1990 C.3       9 UNK         0.0261 
     56 CB         36.0462   33.8490    5.2647 C.3       9 UNK        -0.1959 
     57 C          34.7529   31.8093    6.0122 C.2       9 UNK         0.5033 
     58 O          34.5843   31.8500    7.2318 O.2       9 UNK        -0.5390 
     59 N          34.9822   30.6810    5.3291 N.am      10 UNK        -0.4215 
     60 CA         35.0155   29.3432    5.9168 C.3       10 UNK         0.0240 
     61 CB         35.8809   28.4338    5.0274 C.3       10 UNK        -0.1982 
     62 C          33.6256   28.7142    6.1376 C.2       10 UNK         0.4970 
     63 O          33.5413   27.7814    6.9380 O.2       10 UNK        -0.4916 
     64 N          32.5847   29.1866    5.4334 N.am      11 UNK        -0.4279 
     65 CA         31.2424   28.5709    5.4228 C.3       11 UNK         0.1003 
     66 C          30.0702   29.5636    5.6616 C.2       11 UNK         0.5709 
     67 N          30.2582   30.8726    5.5861 N.am      11 UNK        -0.7358 
     68 O          28.9599   29.1315    5.9621 O.2       11 UNK        -0.4999 
     69 C69        31.0146   27.7090    4.1486 C.3       12 UNK        -0.0954 
     70 S70        31.9335   26.1336    4.2081 S.3       12 UNK        -0.2268 
     71 C71        33.2435   26.4002    2.9766 C.3       12 UNK         0.0203 
     72 H72        25.4235   21.2998   -2.6394 H         1 UNK         0.0888 
     73 H73        26.2885   22.6974   -3.2841 H         1 UNK         0.0888 
     74 H74        27.0548   21.1074   -3.2873 H         1 UNK         0.0888 
     75 H75        28.5963   20.9156   -1.6732 H         1 UNK         0.3017 
     76 H76        28.9172   22.8084    0.3838 H         1 UNK         0.0873 
     77 H77        30.3539   20.1442    0.0538 H         1 UNK         0.0745 
     78 H78        30.8549   21.4516    1.0976 H         1 UNK         0.0745 
     79 H79        32.9833   22.0870    0.4419 H         1 UNK         0.0705 
     80 H80        33.5391   22.6065   -1.1203 H         1 UNK         0.0705 
     81 H81        33.0499   23.8603    2.0268 H         1 UNK         0.1334 
     82 H82        32.6355   27.9451    0.8167 H         1 UNK         0.1417 
     83 H83        32.1192   24.7971   -2.0531 H         1 UNK         0.1562 
     84 H84        32.5086   27.0897   -2.7863 H         1 UNK         0.0748 
     85 H85        32.7680   28.3844   -1.6573 H         1 UNK         0.0748 
     86 H86        30.1033   30.2307   -1.1909 H         1 UNK         0.0940 
     87 H87        31.1148   29.2773   -0.1546 H         1 UNK         0.0940 
     88 H88        28.0798   29.1437   -0.4470 H         1 UNK         0.0703 
     89 H89        29.8020   27.0570    0.5720 H         1 UNK         0.3081 
     90 H90        28.4179   24.9863    0.3218 H         1 UNK         0.0719 
     91 H91        28.7001   25.6114    3.3093 H         1 UNK         0.0809 
     92 H92        29.1433   24.0819    2.5659 H         1 UNK         0.0809 
     93 H93        29.9949   25.5402    2.1206 H         1 UNK         0.0809 
     94 H94        26.5077   24.0228    0.7220 H         1 UNK         0.2990 
     95 H95        24.2344   23.8045    3.4548 H         1 UNK         0.0690 
     96 H96        24.0381   24.2893    0.4310 H         1 UNK         0.0788 
     97 H97        23.3075   25.2881    1.6806 H         1 UNK         0.0788 
     98 H98        22.7677   23.6306    1.4600 H         1 UNK         0.0788 
     99 H99        25.4240   22.3179    1.1505 H         1 UNK         0.2993 
    100 H100       26.6394   19.7534    3.2788 H         1 UNK         0.0949 
    101 H101       24.3351   18.9369    2.7568 H         1 UNK         0.0767 
    102 H102       24.4542   19.5850    1.1266 H         1 UNK         0.0767 
    103 H103       25.5076   18.2644    1.6362 H         1 UNK         0.0767 
    104 H104       26.7152   20.3044    0.4327 H         1 UNK         0.3013 
    105 H105       26.9274   30.0367    1.2647 H         1 UNK         0.3121 
    106 H106       27.8877   30.6997    3.8003 H         1 UNK         0.0774 
    107 H107       25.5993   31.9830    2.2133 H         1 UNK         0.0815 
    108 H108       25.8239   32.1042    3.9527 H         1 UNK         0.0815 
    109 H109       25.4816   30.5433    3.2278 H         1 UNK         0.0815 
    110 H110       28.4108   32.4510    0.8452 H         1 UNK         0.2987 
    111 H111       29.1470   34.9914    2.0854 H         1 UNK         0.0949 
    112 H112       29.4855   33.9481   -0.7809 H         1 UNK         0.0806 
    113 H113       28.1304   34.9104   -0.1876 H         1 UNK         0.0806 
    114 H114       29.7398   35.6061   -0.2557 H         1 UNK         0.0806 
    115 H115       30.8012   31.9650    1.6724 H         1 UNK         0.3010 
    116 H116       33.4911   33.1606    1.3832 H         1 UNK         0.0829 
    117 H117       34.2367   30.8023    1.3685 H         1 UNK         0.0813 
    118 H118       32.6222   30.2420    1.7738 H         1 UNK         0.0813 
    119 H119       32.9314   31.0018    0.2114 H         1 UNK         0.0813 
    120 H120       34.9126   33.3728    3.1022 H         1 UNK         0.3038 
    121 H121       33.9434   33.7518    5.6759 H         1 UNK         0.0769 
    122 H122       36.8355   33.2832    4.7682 H         1 UNK         0.0811 
    123 H123       36.3575   34.0029    6.2991 H         1 UNK         0.0811 
    124 H124       35.9908   34.8324    4.7974 H         1 UNK         0.0811 
    125 H125       35.1165   30.7488    4.3311 H         1 UNK         0.3204 
    126 H126       35.4963   29.4055    6.8957 H         1 UNK         0.0748 
    127 H127       35.9175   27.4170    5.4216 H         1 UNK         0.0771 
    128 H128       35.4958   28.3753    4.0094 H         1 UNK         0.0771 
    129 H129       36.9083   28.7949    4.9755 H         1 UNK         0.0771 
    130 H130       32.6943   30.0150    4.8594 H         1 UNK         0.2980 
    131 H131       31.1629   27.8996    6.2798 H         1 UNK         0.0545 
    132 H132       29.4797   31.4899    5.7493 H         1 UNK         0.3459 
    133 H133       31.1179   31.2559    5.1966 H         1 UNK         0.3459 
    134 H134       29.9601   27.4549    4.0350 H         1 UNK         0.0616 
    135 H135       31.2847   28.2665    3.2513 H         1 UNK         0.0616 
    136 H136       33.5393   27.4499    2.9781 H         1 UNK         0.0634 
    137 H137       34.1261   25.8395    3.2873 H         1 UNK         0.0634 
@<TRIPOS>BOND
     1    1    2 1    
     2    1   72 1    
     3    1   73 1    
     4    1   74 1    
     5    2    3 2    
     6    2    4 am   BACKBONE|DICT|INTERRES
     7    4    5 1    
     8    4   75 1    
     9    5    6 1    
    10    5   35 1    
    11    5   76 1    
    12    6    7 1    
    13    6   77 1    
    14    6   78 1    
    15    7    8 1    
    16    8    9 1    
    17    8   79 1    
    18    8   80 1    
    19    9   10 ar   
    20    9   14 ar   
    21   10   11 ar   
    22   10   81 1    
    23   11   12 ar   
    24   11   71 1    
    25   12   13 ar   
    26   12   82 1    
    27   13   14 ar   
    28   13   15 1    
    29   14   83 1    
    30   15   16 1    
    31   15   84 1    
    32   15   85 1    
    33   16   17 1    
    34   17   18 1    
    35   17   86 1    
    36   17   87 1    
    37   18   19 1    
    38   18   37 1    
    39   18   88 1    
    40   19   20 am   BACKBONE|DICT|INTERRES
    41   19   89 1    
    42   20   21 2    
    43   20   22 1    
    44   22   23 1    
    45   22   24 1    
    46   22   90 1    
    47   23   91 1    
    48   23   92 1    
    49   23   93 1    
    50   24   25 am   BACKBONE|DICT|INTERRES
    51   24   94 1    
    52   25   26 2    
    53   25   27 1    
    54   27   28 1    
    55   27   29 1    
    56   27   95 1    
    57   28   96 1    
    58   28   97 1    
    59   28   98 1    
    60   29   30 am   BACKBONE|DICT|INTERRES
    61   29   99 1    
    62   30   31 2    
    63   30   32 1    
    64   32   33 1    
    65   32   34 1    
    66   32  100 1    
    67   33  101 1    
    68   33  102 1    
    69   33  103 1    
    70   34   35 am   BACKBONE|DICT|INTERRES
    71   34  104 1    
    72   35   36 2    
    73   37   38 2    
    74   37   39 am   BACKBONE|DICT|INTERRES
    75   39   40 1    
    76   39  105 1    
    77   40   41 1    
    78   40   42 1    
    79   40  106 1    
    80   41  107 1    
    81   41  108 1    
    82   41  109 1    
    83   42   43 2    
    84   42   44 am   BACKBONE|DICT|INTERRES
    85   44   45 1    
    86   44  110 1    
    87   45   46 1    
    88   45   47 1    
    89   45  111 1    
    90   46  112 1    
    91   46  113 1    
    92   46  114 1    
    93   47   48 2    
    94   47   49 am   BACKBONE|DICT|INTERRES
    95   49   50 1    
    96   49  115 1    
    97   50   51 1    
    98   50   52 1    
    99   50  116 1    
   100   51  117 1    
   101   51  118 1    
   102   51  119 1    
   103   52   53 2    
   104   52   54 am   BACKBONE|DICT|INTERRES
   105   54   55 1    
   106   54  120 1    
   107   55   56 1    
   108   55   57 1    
   109   55  121 1    
   110   56  122 1    
   111   56  123 1    
   112   56  124 1    
   113   57   58 2    
   114   57   59 am   BACKBONE|DICT|INTERRES
   115   59   60 1    
   116   59  125 1    
   117   60   61 1    
   118   60   62 1    
   119   60  126 1    
   120   61  127 1    
   121   61  128 1    
   122   61  129 1    
   123   62   63 2    
   124   62   64 am   BACKBONE|DICT|INTERRES
   125   64   65 1    
   126   64  130 1    
   127   65   66 1    
   128   65   69 1    
   129   65  131 1    
   130   66   67 am   BACKBONE|DICT|INTERRES
   131   66   68 2    
   132   67  132 1    
   133   67  133 1    
   134   69   70 1    
   135   69  134 1    
   136   69  135 1    
   137   70   71 1    
   138   71  136 1    
   139   71  137 1    
@<TRIPOS>SUBSTRUCTURE
     1 UNK         1 GROUP             0       ****    0 ROOT    
