@<TRIPOS>MOLECULE
3R136
137   139    1
SMALL
USER_CHARGES


@<TRIPOS>ATOM
      1 CA         32.5759   21.1979   -3.0938 C.3       0 UNK        -0.1979 
      2 C          31.6181   22.2873   -2.6353 C.2       0 UNK         0.4864 
      3 O          31.8225   23.4597   -2.9572 O.2       0 UNK        -0.5359 
      4 N          30.5707   21.9147   -1.8879 N.am      1 UNK        -0.4318 
      5 CA         29.5430   22.8196   -1.3640 C.3       1 UNK         0.0824 
      6 C6         28.8197   22.2260   -0.1284 C.3       12 UNK        -0.0944 
      7 S7         29.8952   22.2186    1.3426 S.3       12 UNK        -0.2672 
      8 C8         29.5362   23.8893    1.9655 C.3       12 UNK         0.0333 
      9 C9         30.2587   24.1825    3.2669 C.ar      12 UNK        -0.0807 
     10 C10        31.5244   24.7755    3.2539 C.ar      12 UNK        -0.0894 
     11 C11        32.1714   25.1119    4.4474 C.ar      12 UNK        -0.0804 
     12 C12        31.5274   24.8412    5.6633 C.ar      12 UNK        -0.0824 
     13 C13        30.2581   24.2575    5.6869 C.ar      12 UNK        -0.0762 
     14 C14        29.6361   23.9097    4.4861 C.ar      12 UNK        -0.0782 
     15 C15        29.5431   24.0506    7.0120 C.3       12 UNK         0.0230 
     16 S16        28.7785   25.6020    7.5865 S.3       12 UNK        -0.2608 
     17 C17        27.3923   25.8053    6.4140 C.3       12 UNK        -0.0989 
     18 CA         27.7040   26.7308    5.2055 C.3       5 UNK         0.0716 
     19 N          26.7537   26.4785    4.1081 N.am      5 UNK        -0.4135 
     20 C          26.7278   27.1013    2.9219 C.2       4 UNK         0.5031 
     21 O          27.4709   28.0368    2.6278 O.2       4 UNK        -0.5229 
     22 CA         25.6369   26.6560    1.9316 C.3       4 UNK         0.0329 
     23 CB         24.2698   27.2125    2.3655 C.3       4 UNK        -0.2001 
     24 N          25.9081   27.1081    0.5628 N.am      4 UNK        -0.4303 
     25 C          26.8870   26.6398   -0.2209 C.2       3 UNK         0.5044 
     26 O          27.6479   25.7220    0.0968 O.2       3 UNK        -0.5152 
     27 CA         27.0494   27.3218   -1.5874 C.3       3 UNK         0.0319 
     28 CB         27.8707   28.6155   -1.4518 C.3       3 UNK        -0.2001 
     29 N          27.7624   26.4076   -2.4730 N.am      3 UNK        -0.4354 
     30 C          27.3537   25.9691   -3.6698 C.2       2 UNK         0.4964 
     31 O          26.3519   26.3873   -4.2512 O.2       2 UNK        -0.5047 
     32 CA         28.2056   24.8654   -4.3304 C.3       2 UNK         0.0288 
     33 CB         29.1185   25.4628   -5.4136 C.3       2 UNK        -0.2113 
     34 N          29.0281   24.1339   -3.3611 N.am      2 UNK        -0.4145 
     35 C          28.5577   23.2510   -2.4699 C.2       1 UNK         0.5006 
     36 O          27.4075   22.8072   -2.4913 O.2       1 UNK        -0.5103 
     37 C          27.8088   28.2165    5.6280 C.2       5 UNK         0.5055 
     38 O          28.9043   28.6881    5.9341 O.2       5 UNK        -0.5220 
     39 N          26.6770   28.9339    5.6059 N.am      6 UNK        -0.4450 
     40 CA         26.5988   30.3637    5.9160 C.3       6 UNK         0.0367 
     41 CB         25.1618   30.6938    6.3541 C.3       6 UNK        -0.1929 
     42 C          27.0236   31.2816    4.7517 C.2       6 UNK         0.5070 
     43 O          27.2528   32.4679    4.9906 O.2       6 UNK        -0.5237 
     44 N          27.0838   30.7509    3.5228 N.am      7 UNK        -0.4739 
     45 CA         27.3446   31.5082    2.2952 C.3       7 UNK         0.0276 
     46 CB         26.2517   31.1682    1.2687 C.3       7 UNK        -0.1927 
     47 C          28.7382   31.2326    1.7078 C.2       7 UNK         0.5013 
     48 O          29.2932   32.1197    1.0583 O.2       7 UNK        -0.5193 
     49 N          29.2725   30.0222    1.9231 N.am      8 UNK        -0.4253 
     50 CA         30.5870   29.5661    1.4712 C.3       8 UNK         0.0242 
     51 CB         30.7440   28.0726    1.8122 C.3       8 UNK        -0.2000 
     52 C          31.7198   30.3980    2.0936 C.2       8 UNK         0.4948 
     53 O          32.0037   30.2478    3.2836 O.2       8 UNK        -0.5275 
     54 N          32.3568   31.2496    1.2775 N.am      9 UNK        -0.4246 
     55 CA         33.3879   32.2179    1.6783 C.3       9 UNK         0.0261 
     56 CB         33.7836   33.0631    0.4563 C.3       9 UNK        -0.1959 
     57 C          34.6410   31.6138    2.3408 C.2       9 UNK         0.5033 
     58 O          35.3475   32.3297    3.0518 O.2       9 UNK        -0.5390 
     59 N          34.8868   30.3163    2.1155 N.am      10 UNK        -0.4215 
     60 CA         35.9340   29.5347    2.7734 C.3       10 UNK         0.0240 
     61 CB         36.0823   28.1847    2.0517 C.3       10 UNK        -0.1982 
     62 C          35.6900   29.3140    4.2794 C.2       10 UNK         0.4970 
     63 O          36.6651   29.1119    5.0047 O.2       10 UNK        -0.4916 
     64 N          34.4229   29.3449    4.7176 N.am      11 UNK        -0.4279 
     65 CA         34.0117   29.1372    6.1161 C.3       11 UNK         0.1003 
     66 C          33.2020   30.3283    6.6961 C.2       11 UNK         0.5709 
     67 N          32.5127   31.1271    5.8915 N.am      11 UNK        -0.7358 
     68 O          33.2197   30.5467    7.9054 O.2       11 UNK        -0.4999 
     69 C69        33.2391   27.8051    6.2982 C.3       12 UNK        -0.0954 
     70 S70        34.2728   26.3445    5.9355 S.3       12 UNK        -0.2268 
     71 C71        33.5512   25.7707    4.3586 C.3       12 UNK         0.0203 
     72 H72        33.5803   21.4027   -2.7243 H         1 UNK         0.0888 
     73 H73        32.2763   20.2137   -2.7340 H         1 UNK         0.0888 
     74 H74        32.6127   21.1650   -4.1823 H         1 UNK         0.0888 
     75 H75        30.4458   20.9381   -1.6622 H         1 UNK         0.3017 
     76 H76        30.0377   23.7366   -1.0359 H         1 UNK         0.0873 
     77 H77        27.9201   22.7964    0.1137 H         1 UNK         0.0745 
     78 H78        28.4819   21.2076   -0.3281 H         1 UNK         0.0745 
     79 H79        29.8234   24.6263    1.2144 H         1 UNK         0.0705 
     80 H80        28.4603   24.0034    2.1088 H         1 UNK         0.0705 
     81 H81        32.0023   24.9885    2.3072 H         1 UNK         0.1334 
     82 H82        31.9892   25.1016    6.6043 H         1 UNK         0.1417 
     83 H83        28.6515   23.4627    4.4975 H         1 UNK         0.1562 
     84 H84        30.2571   23.7090    7.7630 H         1 UNK         0.0748 
     85 H85        28.7869   23.2679    6.9329 H         1 UNK         0.0748 
     86 H86        26.5259   26.1739    6.9669 H         1 UNK         0.0940 
     87 H87        27.1063   24.8121    6.0650 H         1 UNK         0.0940 
     88 H88        28.6851   26.4667    4.8083 H         1 UNK         0.0703 
     89 H89        26.0800   25.7445    4.2710 H         1 UNK         0.3081 
     90 H90        25.5964   25.5646    1.9308 H         1 UNK         0.0719 
     91 H91        24.2682   28.3032    2.3948 H         1 UNK         0.0809 
     92 H92        23.4793   26.8955    1.6849 H         1 UNK         0.0809 
     93 H93        23.9929   26.8596    3.3597 H         1 UNK         0.0809 
     94 H94        25.3487   27.8778    0.2270 H         1 UNK         0.2990 
     95 H95        26.0597   27.5533   -1.9868 H         1 UNK         0.0690 
     96 H96        28.0337   29.0841   -2.4224 H         1 UNK         0.0788 
     97 H97        28.8468   28.4278   -1.0027 H         1 UNK         0.0788 
     98 H98        27.3594   29.3443   -0.8245 H         1 UNK         0.0788 
     99 H99        28.5538   25.9494   -2.0439 H         1 UNK         0.2993 
    100 H100       27.5195   24.1607   -4.8056 H         1 UNK         0.0949 
    101 H101       29.6839   24.6854   -5.9281 H         1 UNK         0.0767 
    102 H102       28.5344   25.9911   -6.1686 H         1 UNK         0.0767 
    103 H103       29.8307   26.1747   -4.9942 H         1 UNK         0.0767 
    104 H104       30.0188   24.3551   -3.3257 H         1 UNK         0.3013 
    105 H105       25.8178   28.4766    5.3381 H         1 UNK         0.3121 
    106 H106       27.2648   30.5770    6.7552 H         1 UNK         0.0774 
    107 H107       25.0701   31.7445    6.6331 H         1 UNK         0.0815 
    108 H108       24.4423   30.5058    5.5560 H         1 UNK         0.0815 
    109 H109       24.8652   30.1045    7.2220 H         1 UNK         0.0815 
    110 H110       26.9665   29.7491    3.4131 H         1 UNK         0.2987 
    111 H111       27.2919   32.5812    2.4929 H         1 UNK         0.0949 
    112 H112       26.1957   30.0960    1.0818 H         1 UNK         0.0806 
    113 H113       25.2717   31.4956    1.6159 H         1 UNK         0.0806 
    114 H114       26.4385   31.6623    0.3141 H         1 UNK         0.0806 
    115 H115       28.7021   29.3275    2.4003 H         1 UNK         0.3010 
    116 H116       30.6233   29.6722    0.3854 H         1 UNK         0.0829 
    117 H117       29.9819   27.4698    1.3167 H         1 UNK         0.0813 
    118 H118       31.7160   27.6951    1.4930 H         1 UNK         0.0813 
    119 H119       30.6596   27.8924    2.8854 H         1 UNK         0.0813 
    120 H120       32.0362   31.3175    0.3218 H         1 UNK         0.3038 
    121 H121       32.9316   32.8805    2.4168 H         1 UNK         0.0769 
    122 H122       34.2142   32.4497   -0.3363 H         1 UNK         0.0811 
    123 H123       34.5258   33.8164    0.7247 H         1 UNK         0.0811 
    124 H124       32.9245   33.5929    0.0440 H         1 UNK         0.0811 
    125 H125       34.2587   29.8170    1.5035 H         1 UNK         0.3204 
    126 H126       36.8743   30.0811    2.6727 H         1 UNK         0.0748 
    127 H127       36.3550   28.3220    1.0051 H         1 UNK         0.0771 
    128 H128       36.8654   27.5799    2.5115 H         1 UNK         0.0771 
    129 H129       35.1604   27.6033    2.0859 H         1 UNK         0.0771 
    130 H130       33.6730   29.5663    4.0712 H         1 UNK         0.2980 
    131 H131       34.9014   29.0775    6.7457 H         1 UNK         0.0545 
    132 H132       32.0041   31.8992    6.2896 H         1 UNK         0.3459 
    133 H133       32.3904   30.8956    4.9084 H         1 UNK         0.3459 
    134 H134       32.3431   27.7949    5.6741 H         1 UNK         0.0616 
    135 H135       32.8910   27.7013    7.3276 H         1 UNK         0.0616 
    136 H136       33.4993   26.6195    3.6752 H         1 UNK         0.0634 
    137 H137       34.2447   25.0565    3.9131 H         1 UNK         0.0634 
@<TRIPOS>BOND
     1    1    2 1    
     2    1   72 1    
     3    1   73 1    
     4    1   74 1    
     5    2    3 2    
     6    2    4 am   BACKBONE|DICT|INTERRES
     7    4    5 1    
     8    4   75 1    
     9    5    6 1    
    10    5   35 1    
    11    5   76 1    
    12    6    7 1    
    13    6   77 1    
    14    6   78 1    
    15    7    8 1    
    16    8    9 1    
    17    8   79 1    
    18    8   80 1    
    19    9   10 ar   
    20    9   14 ar   
    21   10   11 ar   
    22   10   81 1    
    23   11   12 ar   
    24   11   71 1    
    25   12   13 ar   
    26   12   82 1    
    27   13   14 ar   
    28   13   15 1    
    29   14   83 1    
    30   15   16 1    
    31   15   84 1    
    32   15   85 1    
    33   16   17 1    
    34   17   18 1    
    35   17   86 1    
    36   17   87 1    
    37   18   19 1    
    38   18   37 1    
    39   18   88 1    
    40   19   20 am   BACKBONE|DICT|INTERRES
    41   19   89 1    
    42   20   21 2    
    43   20   22 1    
    44   22   23 1    
    45   22   24 1    
    46   22   90 1    
    47   23   91 1    
    48   23   92 1    
    49   23   93 1    
    50   24   25 am   BACKBONE|DICT|INTERRES
    51   24   94 1    
    52   25   26 2    
    53   25   27 1    
    54   27   28 1    
    55   27   29 1    
    56   27   95 1    
    57   28   96 1    
    58   28   97 1    
    59   28   98 1    
    60   29   30 am   BACKBONE|DICT|INTERRES
    61   29   99 1    
    62   30   31 2    
    63   30   32 1    
    64   32   33 1    
    65   32   34 1    
    66   32  100 1    
    67   33  101 1    
    68   33  102 1    
    69   33  103 1    
    70   34   35 am   BACKBONE|DICT|INTERRES
    71   34  104 1    
    72   35   36 2    
    73   37   38 2    
    74   37   39 am   BACKBONE|DICT|INTERRES
    75   39   40 1    
    76   39  105 1    
    77   40   41 1    
    78   40   42 1    
    79   40  106 1    
    80   41  107 1    
    81   41  108 1    
    82   41  109 1    
    83   42   43 2    
    84   42   44 am   BACKBONE|DICT|INTERRES
    85   44   45 1    
    86   44  110 1    
    87   45   46 1    
    88   45   47 1    
    89   45  111 1    
    90   46  112 1    
    91   46  113 1    
    92   46  114 1    
    93   47   48 2    
    94   47   49 am   BACKBONE|DICT|INTERRES
    95   49   50 1    
    96   49  115 1    
    97   50   51 1    
    98   50   52 1    
    99   50  116 1    
   100   51  117 1    
   101   51  118 1    
   102   51  119 1    
   103   52   53 2    
   104   52   54 am   BACKBONE|DICT|INTERRES
   105   54   55 1    
   106   54  120 1    
   107   55   56 1    
   108   55   57 1    
   109   55  121 1    
   110   56  122 1    
   111   56  123 1    
   112   56  124 1    
   113   57   58 2    
   114   57   59 am   BACKBONE|DICT|INTERRES
   115   59   60 1    
   116   59  125 1    
   117   60   61 1    
   118   60   62 1    
   119   60  126 1    
   120   61  127 1    
   121   61  128 1    
   122   61  129 1    
   123   62   63 2    
   124   62   64 am   BACKBONE|DICT|INTERRES
   125   64   65 1    
   126   64  130 1    
   127   65   66 1    
   128   65   69 1    
   129   65  131 1    
   130   66   67 am   BACKBONE|DICT|INTERRES
   131   66   68 2    
   132   67  132 1    
   133   67  133 1    
   134   69   70 1    
   135   69  134 1    
   136   69  135 1    
   137   70   71 1    
   138   71  136 1    
   139   71  137 1    
@<TRIPOS>SUBSTRUCTURE
     1 UNK         1 GROUP             0       ****    0 ROOT    
