@<TRIPOS>MOLECULE
3R136
137   139    1
SMALL
USER_CHARGES


@<TRIPOS>ATOM
      1 CA         26.4008   17.8471    2.2089 C.3       0 UNK        -0.1979 
      2 C          27.1017   18.9649    1.4506 C.2       0 UNK         0.4864 
      3 O          27.3450   18.8307    0.2500 O.2       0 UNK        -0.5359 
      4 N          27.4360   20.0607    2.1434 N.am      1 UNK        -0.4318 
      5 CA         28.0740   21.2516    1.5723 C.3       1 UNK         0.0824 
      6 C6         28.6493   22.1860    2.6663 C.3       12 UNK        -0.0944 
      7 S7         29.8145   21.3580    3.7970 S.3       12 UNK        -0.2672 
      8 C8         31.3809   21.4691    2.8733 C.3       12 UNK         0.0333 
      9 C9         31.8614   22.9010    2.6637 C.ar      12 UNK        -0.0807 
     10 C10        32.0997   23.7379    3.7575 C.ar      12 UNK        -0.0894 
     11 C11        32.5960   25.0333    3.5785 C.ar      12 UNK        -0.0804 
     12 C12        32.8673   25.4805    2.2785 C.ar      12 UNK        -0.0824 
     13 C13        32.6338   24.6554    1.1708 C.ar      12 UNK        -0.0762 
     14 C14        32.1226   23.3702    1.3737 C.ar      12 UNK        -0.0782 
     15 C15        33.0072   25.0941   -0.2441 C.3       12 UNK         0.0230 
     16 S16        32.5263   26.8003   -0.6651 S.3       12 UNK        -0.2608 
     17 C17        30.7077   26.6812   -0.7428 C.3       12 UNK        -0.0989 
     18 CA         30.0343   27.9447   -0.1526 C.3       5 UNK         0.0716 
     19 N          28.6682   28.1227   -0.6466 N.am      5 UNK        -0.4135 
     20 C          28.0556   29.3092   -0.7693 C.2       4 UNK         0.5031 
     21 O          28.5963   30.3889   -0.5336 O.2       4 UNK        -0.5229 
     22 CA         26.5883   29.2996   -1.2343 C.3       4 UNK         0.0329 
     23 CB         26.5091   29.4158   -2.7650 C.3       4 UNK        -0.2001 
     24 N          25.8533   28.1105   -0.7997 N.am      4 UNK        -0.4303 
     25 C          25.5165   27.8493    0.4711 C.2       3 UNK         0.5044 
     26 O          25.7377   28.6109    1.4118 O.2       3 UNK        -0.5152 
     27 CA         24.8509   26.4886    0.7423 C.3       3 UNK         0.0319 
     28 CB         23.3228   26.6061    0.6271 C.3       3 UNK        -0.2001 
     29 N          25.3232   25.3964   -0.1198 N.am      3 UNK        -0.4354 
     30 C          26.5954   24.9863   -0.2136 C.2       2 UNK         0.4964 
     31 O          27.5438   25.5487    0.3385 O.2       2 UNK        -0.5047 
     32 CA         26.8730   23.7517   -1.0826 C.3       2 UNK         0.0288 
     33 CB         27.6859   24.1406   -2.3288 C.3       2 UNK        -0.2113 
     34 N          27.6191   22.7637   -0.3033 N.am      2 UNK        -0.4145 
     35 C          27.0857   22.0439    0.6934 C.2       1 UNK         0.5006 
     36 O          25.8804   22.0379    0.9626 O.2       1 UNK        -0.5103 
     37 C          30.0546   27.9393    1.3852 C.2       5 UNK         0.5055 
     38 O          30.9056   28.5954    1.9760 O.2       5 UNK        -0.5220 
     39 N          29.0947   27.2363    2.0028 N.am      6 UNK        -0.4450 
     40 CA         28.9576   27.0633    3.4526 C.3       6 UNK         0.0367 
     41 CB         27.9067   25.9725    3.7132 C.3       6 UNK        -0.1929 
     42 C          28.6109   28.3429    4.2430 C.2       6 UNK         0.5070 
     43 O          28.5726   28.2911    5.4739 O.2       6 UNK        -0.5237 
     44 N          28.3391   29.4573    3.5513 N.am      7 UNK        -0.4739 
     45 CA         27.9802   30.7650    4.1033 C.3       7 UNK         0.0276 
     46 CB         27.3689   31.6181    2.9758 C.3       7 UNK        -0.1927 
     47 C          29.1525   31.4749    4.8163 C.2       7 UNK         0.5013 
     48 O          29.5904   32.5398    4.3732 O.2       7 UNK        -0.5193 
     49 N          29.6222   30.8758    5.9199 N.am      8 UNK        -0.4253 
     50 CA         30.6176   31.3759    6.8756 C.3       8 UNK         0.0242 
     51 CB         29.9931   32.4805    7.7578 C.3       8 UNK        -0.2000 
     52 C          31.9336   31.7996    6.1982 C.2       8 UNK         0.4948 
     53 O          32.7359   30.9360    5.8448 O.2       8 UNK        -0.5275 
     54 N          32.1228   33.1128    6.0029 N.am      9 UNK        -0.4246 
     55 CA         33.2742   33.7194    5.3278 C.3       9 UNK         0.0261 
     56 CB         33.1498   35.2500    5.3931 C.3       9 UNK        -0.1959 
     57 C          33.4684   33.2570    3.8715 C.2       9 UNK         0.5033 
     58 O          34.5973   33.3002    3.3787 O.2       9 UNK        -0.5390 
     59 N          32.3930   32.7854    3.2208 N.am      10 UNK        -0.4215 
     60 CA         32.4225   32.1932    1.8805 C.3       10 UNK         0.0240 
     61 CB         30.9865   31.9330    1.4044 C.3       10 UNK        -0.1982 
     62 C          33.2790   30.9149    1.7697 C.2       10 UNK         0.4970 
     63 O          33.7130   30.5970    0.6612 O.2       10 UNK        -0.4916 
     64 N          33.5487   30.2356    2.8963 N.am      11 UNK        -0.4279 
     65 CA         34.4925   29.1095    2.9722 C.3       11 UNK         0.1003 
     66 C          35.9836   29.5166    2.7707 C.2       11 UNK         0.5709 
     67 N          36.3498   30.7934    2.8336 N.am      11 UNK        -0.7358 
     68 O          36.8276   28.6519    2.5476 O.2       11 UNK        -0.4999 
     69 C69        34.3350   28.2866    4.2813 C.3       12 UNK        -0.0954 
     70 S70        32.6398   27.6846    4.6000 S.3       12 UNK        -0.2268 
     71 C71        32.8727   25.8866    4.8181 C.3       12 UNK         0.0203 
     72 H72        26.9825   16.9279    2.1451 H         1 UNK         0.0888 
     73 H73        26.2672   18.0911    3.2627 H         1 UNK         0.0888 
     74 H74        25.4180   17.6601    1.7770 H         1 UNK         0.0888 
     75 H75        27.2062   20.1208    3.1248 H         1 UNK         0.3017 
     76 H76        28.8964   20.9150    0.9374 H         1 UNK         0.0873 
     77 H77        27.8414   22.5928    3.2781 H         1 UNK         0.0745 
     78 H78        29.1457   23.0482    2.2170 H         1 UNK         0.0745 
     79 H79        31.2643   20.9509    1.9204 H         1 UNK         0.0705 
     80 H80        32.1476   20.9225    3.4240 H         1 UNK         0.0705 
     81 H81        31.9086   23.3687    4.7562 H         1 UNK         0.1334 
     82 H82        33.2725   26.4679    2.1237 H         1 UNK         0.1417 
     83 H83        31.9626   22.7182    0.5256 H         1 UNK         0.1562 
     84 H84        32.5729   24.4226   -0.9867 H         1 UNK         0.0748 
     85 H85        34.0891   25.0076   -0.3514 H         1 UNK         0.0748 
     86 H86        30.3574   25.7730   -0.2475 H         1 UNK         0.0940 
     87 H87        30.4413   26.5714   -1.7952 H         1 UNK         0.0940 
     88 H88        30.6148   28.8116   -0.4789 H         1 UNK         0.0703 
     89 H89        28.1295   27.2783   -0.7865 H         1 UNK         0.3081 
     90 H90        26.1008   30.1755   -0.8000 H         1 UNK         0.0719 
     91 H91        27.0293   30.3087   -3.1149 H         1 UNK         0.0809 
     92 H92        26.9648   28.5581   -3.2614 H         1 UNK         0.0809 
     93 H93        25.4759   29.4919   -3.1046 H         1 UNK         0.0809 
     94 H94        25.6152   27.4309   -1.5074 H         1 UNK         0.2990 
     95 H95        25.0907   26.2126    1.7708 H         1 UNK         0.0690 
     96 H96        22.9422   27.3972    1.2751 H         1 UNK         0.0788 
     97 H97        22.8293   25.6812    0.9263 H         1 UNK         0.0788 
     98 H98        23.0103   26.8406   -0.3914 H         1 UNK         0.0788 
     99 H99        24.6103   24.8761   -0.6113 H         1 UNK         0.2993 
    100 H100       25.9280   23.3082   -1.4045 H         1 UNK         0.0949 
    101 H101       27.8724   23.2749   -2.9647 H         1 UNK         0.0767 
    102 H102       27.1496   24.8744   -2.9321 H         1 UNK         0.0767 
    103 H103       28.6509   24.5762   -2.0661 H         1 UNK         0.0767 
    104 H104       28.6186   22.7458   -0.4422 H         1 UNK         0.3013 
    105 H105       28.4474   26.7012    1.4272 H         1 UNK         0.3121 
    106 H106       29.9172   26.7055    3.8293 H         1 UNK         0.0774 
    107 H107       26.9166   26.2847    3.3805 H         1 UNK         0.0815 
    108 H108       28.1592   25.0491    3.1946 H         1 UNK         0.0815 
    109 H109       27.8375   25.7383    4.7762 H         1 UNK         0.0815 
    110 H110       28.4036   29.4006    2.5454 H         1 UNK         0.2987 
    111 H111       27.2027   30.6105    4.8545 H         1 UNK         0.0949 
    112 H112       27.0654   32.5984    3.3457 H         1 UNK         0.0806 
    113 H113       28.0745   31.7803    2.1605 H         1 UNK         0.0806 
    114 H114       26.4816   31.1426    2.5568 H         1 UNK         0.0806 
    115 H115       29.2555   29.9454    6.1090 H         1 UNK         0.3010 
    116 H116       30.8694   30.5371    7.5266 H         1 UNK         0.0829 
    117 H117       29.6145   33.3181    7.1708 H         1 UNK         0.0813 
    118 H118       29.1580   32.0872    8.3376 H         1 UNK         0.0813 
    119 H119       30.7182   32.8732    8.4723 H         1 UNK         0.0813 
    120 H120       31.3869   33.7406    6.2928 H         1 UNK         0.3038 
    121 H121       34.1682   33.4232    5.8803 H         1 UNK         0.0769 
    122 H122       32.2546   35.6042    4.8801 H         1 UNK         0.0811 
    123 H123       34.0077   35.7317    4.9214 H         1 UNK         0.0811 
    124 H124       33.1099   35.6027    6.4239 H         1 UNK         0.0811 
    125 H125       31.4975   32.7758    3.7022 H         1 UNK         0.3204 
    126 H126       32.8685   32.9321    1.2117 H         1 UNK         0.0748 
    127 H127       30.9772   31.5259    0.3924 H         1 UNK         0.0771 
    128 H128       30.4788   31.2130    2.0455 H         1 UNK         0.0771 
    129 H129       30.3951   32.8485    1.3930 H         1 UNK         0.0771 
    130 H130       33.1489   30.5370    3.7773 H         1 UNK         0.2980 
    131 H131       34.2552   28.4498    2.1374 H         1 UNK         0.0545 
    132 H132       35.6713   31.5250    3.0095 H         1 UNK         0.3459 
    133 H133       37.3188   31.0326    2.6971 H         1 UNK         0.3459 
    134 H134       34.6318   28.8910    5.1403 H         1 UNK         0.0616 
    135 H135       35.0146   27.4331    4.2651 H         1 UNK         0.0616 
    136 H136       33.8786   25.6766    5.1823 H         1 UNK         0.0634 
    137 H137       32.1963   25.5815    5.6179 H         1 UNK         0.0634 
@<TRIPOS>BOND
     1    1    2 1    
     2    1   72 1    
     3    1   73 1    
     4    1   74 1    
     5    2    3 2    
     6    2    4 am   BACKBONE|DICT|INTERRES
     7    4    5 1    
     8    4   75 1    
     9    5    6 1    
    10    5   35 1    
    11    5   76 1    
    12    6    7 1    
    13    6   77 1    
    14    6   78 1    
    15    7    8 1    
    16    8    9 1    
    17    8   79 1    
    18    8   80 1    
    19    9   10 ar   
    20    9   14 ar   
    21   10   11 ar   
    22   10   81 1    
    23   11   12 ar   
    24   11   71 1    
    25   12   13 ar   
    26   12   82 1    
    27   13   14 ar   
    28   13   15 1    
    29   14   83 1    
    30   15   16 1    
    31   15   84 1    
    32   15   85 1    
    33   16   17 1    
    34   17   18 1    
    35   17   86 1    
    36   17   87 1    
    37   18   19 1    
    38   18   37 1    
    39   18   88 1    
    40   19   20 am   BACKBONE|DICT|INTERRES
    41   19   89 1    
    42   20   21 2    
    43   20   22 1    
    44   22   23 1    
    45   22   24 1    
    46   22   90 1    
    47   23   91 1    
    48   23   92 1    
    49   23   93 1    
    50   24   25 am   BACKBONE|DICT|INTERRES
    51   24   94 1    
    52   25   26 2    
    53   25   27 1    
    54   27   28 1    
    55   27   29 1    
    56   27   95 1    
    57   28   96 1    
    58   28   97 1    
    59   28   98 1    
    60   29   30 am   BACKBONE|DICT|INTERRES
    61   29   99 1    
    62   30   31 2    
    63   30   32 1    
    64   32   33 1    
    65   32   34 1    
    66   32  100 1    
    67   33  101 1    
    68   33  102 1    
    69   33  103 1    
    70   34   35 am   BACKBONE|DICT|INTERRES
    71   34  104 1    
    72   35   36 2    
    73   37   38 2    
    74   37   39 am   BACKBONE|DICT|INTERRES
    75   39   40 1    
    76   39  105 1    
    77   40   41 1    
    78   40   42 1    
    79   40  106 1    
    80   41  107 1    
    81   41  108 1    
    82   41  109 1    
    83   42   43 2    
    84   42   44 am   BACKBONE|DICT|INTERRES
    85   44   45 1    
    86   44  110 1    
    87   45   46 1    
    88   45   47 1    
    89   45  111 1    
    90   46  112 1    
    91   46  113 1    
    92   46  114 1    
    93   47   48 2    
    94   47   49 am   BACKBONE|DICT|INTERRES
    95   49   50 1    
    96   49  115 1    
    97   50   51 1    
    98   50   52 1    
    99   50  116 1    
   100   51  117 1    
   101   51  118 1    
   102   51  119 1    
   103   52   53 2    
   104   52   54 am   BACKBONE|DICT|INTERRES
   105   54   55 1    
   106   54  120 1    
   107   55   56 1    
   108   55   57 1    
   109   55  121 1    
   110   56  122 1    
   111   56  123 1    
   112   56  124 1    
   113   57   58 2    
   114   57   59 am   BACKBONE|DICT|INTERRES
   115   59   60 1    
   116   59  125 1    
   117   60   61 1    
   118   60   62 1    
   119   60  126 1    
   120   61  127 1    
   121   61  128 1    
   122   61  129 1    
   123   62   63 2    
   124   62   64 am   BACKBONE|DICT|INTERRES
   125   64   65 1    
   126   64  130 1    
   127   65   66 1    
   128   65   69 1    
   129   65  131 1    
   130   66   67 am   BACKBONE|DICT|INTERRES
   131   66   68 2    
   132   67  132 1    
   133   67  133 1    
   134   69   70 1    
   135   69  134 1    
   136   69  135 1    
   137   70   71 1    
   138   71  136 1    
   139   71  137 1    
@<TRIPOS>SUBSTRUCTURE
     1 UNK         1 GROUP             0       ****    0 ROOT    
