@<TRIPOS>MOLECULE
3R136
137   139    1
SMALL
USER_CHARGES


@<TRIPOS>ATOM
      1 CA         30.1972   25.4139    1.3443 C.3       0 UNK        -0.1979 
      2 C          30.1671   24.4685    0.1547 C.2       0 UNK         0.4864 
      3 O          30.7947   24.7575   -0.8662 O.2       0 UNK        -0.5359 
      4 N          29.4337   23.3526    0.2813 N.am      1 UNK        -0.4318 
      5 CA         29.2639   22.2697   -0.6963 C.3       1 UNK         0.0824 
      6 C6         30.5747   21.4858   -0.9853 C.3       12 UNK        -0.0944 
      7 S7         30.9924   20.3126    0.3489 S.3       12 UNK        -0.2672 
      8 C8         32.2554   21.2090    1.3226 C.3       12 UNK         0.0333 
      9 C9         31.7284   22.0650    2.4785 C.ar      12 UNK        -0.0807 
     10 C10        32.5922   22.9959    3.0636 C.ar      12 UNK        -0.0894 
     11 C11        32.1791   23.7832    4.1430 C.ar      12 UNK        -0.0804 
     12 C12        30.8765   23.6530    4.6330 C.ar      12 UNK        -0.0824 
     13 C13        29.9993   22.7269    4.0611 C.ar      12 UNK        -0.0762 
     14 C14        30.4347   21.9272    2.9999 C.ar      12 UNK        -0.0782 
     15 C15        28.5816   22.5718    4.5876 C.3       12 UNK         0.0230 
     16 S16        27.4356   23.7186    3.7570 S.3       12 UNK        -0.2608 
     17 C17        27.3561   25.1143    4.9349 C.3       12 UNK        -0.0989 
     18 CA         27.6712   26.4938    4.2957 C.3       5 UNK         0.0716 
     19 N          26.8079   26.7664    3.1379 N.am      5 UNK        -0.4135 
     20 C          27.0596   27.6429    2.1578 C.2       4 UNK         0.5031 
     21 O          28.0618   28.3627    2.1184 O.2       4 UNK        -0.5229 
     22 CA         25.9974   27.7697    1.0534 C.3       4 UNK         0.0329 
     23 CB         25.0824   28.9758    1.3201 C.3       4 UNK        -0.2001 
     24 N          26.6395   27.9174   -0.2545 N.am      4 UNK        -0.4303 
     25 C          27.2867   26.9185   -0.8673 C.2       3 UNK         0.5044 
     26 O          27.2555   25.7523   -0.4676 O.2       3 UNK        -0.5152 
     27 CA         28.1210   27.2917   -2.1052 C.3       3 UNK         0.0319 
     28 CB         29.2885   28.2211   -1.7273 C.3       3 UNK        -0.2001 
     29 N          28.6819   26.0837   -2.7078 N.am      3 UNK        -0.4354 
     30 C          28.1613   25.4180   -3.7461 C.2       2 UNK         0.4964 
     31 O          27.2132   25.8223   -4.4203 O.2       2 UNK        -0.5047 
     32 CA         28.8033   24.0599   -4.0827 C.3       2 UNK         0.0288 
     33 CB         29.9414   24.2350   -5.1012 C.3       2 UNK        -0.2113 
     34 N          29.3217   23.3885   -2.8883 N.am      2 UNK        -0.4145 
     35 C          28.5615   22.7625   -1.9793 C.2       1 UNK         0.5006 
     36 O          27.3526   22.5666   -2.1193 O.2       1 UNK        -0.5103 
     37 C          27.5806   27.6411    5.3317 C.2       5 UNK         0.5055 
     38 O          27.1766   27.4187    6.4751 O.2       5 UNK        -0.5220 
     39 N          27.9175   28.8574    4.8980 N.am      6 UNK        -0.4450 
     40 CA         27.8313   30.1090    5.6411 C.3       6 UNK         0.0367 
     41 CB         26.3724   30.6157    5.6411 C.3       6 UNK        -0.1929 
     42 C          28.8146   31.1097    5.0162 C.2       6 UNK         0.5070 
     43 O          29.7280   30.6998    4.2950 O.2       6 UNK        -0.5237 
     44 N          28.6055   32.4085    5.2719 N.am      7 UNK        -0.4739 
     45 CA         29.4392   33.5347    4.8237 C.3       7 UNK         0.0276 
     46 CB         28.8634   34.8383    5.4007 C.3       7 UNK        -0.1927 
     47 C          29.6357   33.6647    3.2989 C.2       7 UNK         0.5013 
     48 O          30.5655   34.3524    2.8770 O.2       7 UNK        -0.5193 
     49 N          28.7886   32.9942    2.5036 N.am      8 UNK        -0.4253 
     50 CA         28.9511   32.8252    1.0564 C.3       8 UNK         0.0242 
     51 CB         27.7130   32.1165    0.4838 C.3       8 UNK        -0.2000 
     52 C          30.2256   32.0417    0.6895 C.2       8 UNK         0.4948 
     53 O          30.8743   32.3771   -0.3021 O.2       8 UNK        -0.5275 
     54 N          30.5599   31.0306    1.5022 N.am      9 UNK        -0.4246 
     55 CA         31.7978   30.2582    1.4115 C.3       9 UNK         0.0261 
     56 CB         31.4850   28.7779    1.6742 C.3       9 UNK        -0.1959 
     57 C          32.8373   30.7677    2.4200 C.2       9 UNK         0.5033 
     58 O          34.0196   30.8346    2.0839 O.2       9 UNK        -0.5390 
     59 N          32.3757   31.0975    3.6374 N.am      10 UNK        -0.4215 
     60 CA         33.1337   31.5728    4.8029 C.3       10 UNK         0.0240 
     61 CB         33.8078   32.9298    4.5105 C.3       10 UNK        -0.1982 
     62 C          34.1150   30.5378    5.3931 C.2       10 UNK         0.4970 
     63 O          34.9593   30.9065    6.2117 O.2       10 UNK        -0.4916 
     64 N          33.9845   29.2684    4.9906 N.am      11 UNK        -0.4279 
     65 CA         34.7582   28.1319    5.5004 C.3       11 UNK         0.1003 
     66 C          34.2848   27.6468    6.8997 C.2       11 UNK         0.5709 
     67 N          35.0961   26.8503    7.5830 N.am      11 UNK        -0.7358 
     68 O          33.1918   27.9647    7.3662 O.2       11 UNK        -0.4999 
     69 C69        34.8282   26.9888    4.4535 C.3       12 UNK        -0.0954 
     70 S70        33.2079   26.3379    3.9108 S.3       12 UNK        -0.2268 
     71 C71        33.1591   24.7481    4.7909 C.3       12 UNK         0.0203 
     72 H72        29.6629   26.3309    1.1049 H         1 UNK         0.0888 
     73 H73        29.7325   24.9734    2.2242 H         1 UNK         0.0888 
     74 H74        31.2258   25.6665    1.5986 H         1 UNK         0.0888 
     75 H75        28.9123   23.2268    1.1374 H         1 UNK         0.3017 
     76 H76        28.5604   21.5721   -0.2382 H         1 UNK         0.0873 
     77 H77        30.4668   20.8832   -1.8894 H         1 UNK         0.0745 
     78 H78        31.4144   22.1551   -1.1766 H         1 UNK         0.0745 
     79 H79        32.8561   21.8239    0.6510 H         1 UNK         0.0705 
     80 H80        32.9356   20.4677    1.7437 H         1 UNK         0.0705 
     81 H81        33.6002   23.1018    2.6853 H         1 UNK         0.1334 
     82 H82        30.5493   24.2653    5.4620 H         1 UNK         0.1417 
     83 H83        29.7520   21.2018    2.5812 H         1 UNK         0.1562 
     84 H84        28.5552   22.7078    5.6696 H         1 UNK         0.0748 
     85 H85        28.2334   21.5527    4.4125 H         1 UNK         0.0748 
     86 H86        28.0407   24.9302    5.7644 H         1 UNK         0.0940 
     87 H87        26.3553   25.1154    5.3715 H         1 UNK         0.0940 
     88 H88        28.7063   26.4667    3.9479 H         1 UNK         0.0703 
     89 H89        25.9563   26.2260    3.0971 H         1 UNK         0.3081 
     90 H90        25.3836   26.8662    1.0398 H         1 UNK         0.0719 
     91 H91        25.6409   29.9106    1.3629 H         1 UNK         0.0809 
     92 H92        24.3206   29.0750    0.5466 H         1 UNK         0.0809 
     93 H93        24.5626   28.8668    2.2729 H         1 UNK         0.0809 
     94 H94        26.7278   28.8555   -0.6154 H         1 UNK         0.2990 
     95 H95        27.4696   27.8081   -2.8132 H         1 UNK         0.0690 
     96 H96        29.8310   28.5481   -2.6145 H         1 UNK         0.0788 
     97 H97        30.0010   27.7169   -1.0748 H         1 UNK         0.0788 
     98 H98        28.9474   29.1194   -1.2109 H         1 UNK         0.0788 
     99 H99        29.4187   25.6333   -2.1753 H         1 UNK         0.2993 
    100 H100       28.0326   23.4301   -4.5330 H         1 UNK         0.0949 
    101 H101       30.3650   23.2731   -5.3910 H         1 UNK         0.0767 
    102 H102       29.5794   24.7166   -6.0107 H         1 UNK         0.0767 
    103 H103       30.7486   24.8519   -4.7038 H         1 UNK         0.0767 
    104 H104       30.2841   23.5770   -2.6352 H         1 UNK         0.3013 
    105 H105       28.2661   28.9438    3.9445 H         1 UNK         0.3121 
    106 H106       28.1556   29.9344    6.6688 H         1 UNK         0.0774 
    107 H107       26.2507   31.4964    6.2721 H         1 UNK         0.0815 
    108 H108       26.0367   30.8759    4.6364 H         1 UNK         0.0815 
    109 H109       25.6901   29.8598    6.0302 H         1 UNK         0.0815 
    110 H110       27.8213   32.6506    5.8608 H         1 UNK         0.2987 
    111 H111       30.4335   33.3864    5.2498 H         1 UNK         0.0949 
    112 H112       27.8523   35.0275    5.0381 H         1 UNK         0.0806 
    113 H113       28.8319   34.8122    6.4901 H         1 UNK         0.0806 
    114 H114       29.4759   35.6963    5.1192 H         1 UNK         0.0806 
    115 H115       28.0452   32.4738    2.9448 H         1 UNK         0.3010 
    116 H116       29.0245   33.8182    0.6078 H         1 UNK         0.0829 
    117 H117       26.7980   32.6658    0.7057 H         1 UNK         0.0813 
    118 H118       27.7832   32.0287   -0.6013 H         1 UNK         0.0813 
    119 H119       27.6103   31.1077    0.8850 H         1 UNK         0.0813 
    120 H120       29.9729   30.8433    2.3081 H         1 UNK         0.3038 
    121 H121       32.2225   30.3438    0.4089 H         1 UNK         0.0769 
    122 H122       32.3761   28.1613    1.5512 H         1 UNK         0.0811 
    123 H123       30.7362   28.4127    0.9752 H         1 UNK         0.0811 
    124 H124       31.1001   28.6096    2.6811 H         1 UNK         0.0811 
    125 H125       31.3812   30.9518    3.8178 H         1 UNK         0.3204 
    126 H126       32.3896   31.7415    5.5825 H         1 UNK         0.0748 
    127 H127       34.2313   33.3621    5.4178 H         1 UNK         0.0771 
    128 H128       34.6192   32.8320    3.7889 H         1 UNK         0.0771 
    129 H129       33.0919   33.6502    4.1144 H         1 UNK         0.0771 
    130 H130       33.2457   29.0375    4.3448 H         1 UNK         0.2980 
    131 H131       35.7810   28.4872    5.6412 H         1 UNK         0.0545 
    132 H132       35.9954   26.5802    7.2166 H         1 UNK         0.3459 
    133 H133       34.8061   26.5202    8.4900 H         1 UNK         0.3459 
    134 H134       35.3344   27.3599    3.5611 H         1 UNK         0.0616 
    135 H135       35.4585   26.1756    4.8158 H         1 UNK         0.0616 
    136 H136       34.1510   24.2942    4.7965 H         1 UNK         0.0634 
    137 H137       32.8952   24.9238    5.8349 H         1 UNK         0.0634 
@<TRIPOS>BOND
     1    1    2 1    
     2    1   72 1    
     3    1   73 1    
     4    1   74 1    
     5    2    3 2    
     6    2    4 am   BACKBONE|DICT|INTERRES
     7    4    5 1    
     8    4   75 1    
     9    5    6 1    
    10    5   35 1    
    11    5   76 1    
    12    6    7 1    
    13    6   77 1    
    14    6   78 1    
    15    7    8 1    
    16    8    9 1    
    17    8   79 1    
    18    8   80 1    
    19    9   10 ar   
    20    9   14 ar   
    21   10   11 ar   
    22   10   81 1    
    23   11   12 ar   
    24   11   71 1    
    25   12   13 ar   
    26   12   82 1    
    27   13   14 ar   
    28   13   15 1    
    29   14   83 1    
    30   15   16 1    
    31   15   84 1    
    32   15   85 1    
    33   16   17 1    
    34   17   18 1    
    35   17   86 1    
    36   17   87 1    
    37   18   19 1    
    38   18   37 1    
    39   18   88 1    
    40   19   20 am   BACKBONE|DICT|INTERRES
    41   19   89 1    
    42   20   21 2    
    43   20   22 1    
    44   22   23 1    
    45   22   24 1    
    46   22   90 1    
    47   23   91 1    
    48   23   92 1    
    49   23   93 1    
    50   24   25 am   BACKBONE|DICT|INTERRES
    51   24   94 1    
    52   25   26 2    
    53   25   27 1    
    54   27   28 1    
    55   27   29 1    
    56   27   95 1    
    57   28   96 1    
    58   28   97 1    
    59   28   98 1    
    60   29   30 am   BACKBONE|DICT|INTERRES
    61   29   99 1    
    62   30   31 2    
    63   30   32 1    
    64   32   33 1    
    65   32   34 1    
    66   32  100 1    
    67   33  101 1    
    68   33  102 1    
    69   33  103 1    
    70   34   35 am   BACKBONE|DICT|INTERRES
    71   34  104 1    
    72   35   36 2    
    73   37   38 2    
    74   37   39 am   BACKBONE|DICT|INTERRES
    75   39   40 1    
    76   39  105 1    
    77   40   41 1    
    78   40   42 1    
    79   40  106 1    
    80   41  107 1    
    81   41  108 1    
    82   41  109 1    
    83   42   43 2    
    84   42   44 am   BACKBONE|DICT|INTERRES
    85   44   45 1    
    86   44  110 1    
    87   45   46 1    
    88   45   47 1    
    89   45  111 1    
    90   46  112 1    
    91   46  113 1    
    92   46  114 1    
    93   47   48 2    
    94   47   49 am   BACKBONE|DICT|INTERRES
    95   49   50 1    
    96   49  115 1    
    97   50   51 1    
    98   50   52 1    
    99   50  116 1    
   100   51  117 1    
   101   51  118 1    
   102   51  119 1    
   103   52   53 2    
   104   52   54 am   BACKBONE|DICT|INTERRES
   105   54   55 1    
   106   54  120 1    
   107   55   56 1    
   108   55   57 1    
   109   55  121 1    
   110   56  122 1    
   111   56  123 1    
   112   56  124 1    
   113   57   58 2    
   114   57   59 am   BACKBONE|DICT|INTERRES
   115   59   60 1    
   116   59  125 1    
   117   60   61 1    
   118   60   62 1    
   119   60  126 1    
   120   61  127 1    
   121   61  128 1    
   122   61  129 1    
   123   62   63 2    
   124   62   64 am   BACKBONE|DICT|INTERRES
   125   64   65 1    
   126   64  130 1    
   127   65   66 1    
   128   65   69 1    
   129   65  131 1    
   130   66   67 am   BACKBONE|DICT|INTERRES
   131   66   68 2    
   132   67  132 1    
   133   67  133 1    
   134   69   70 1    
   135   69  134 1    
   136   69  135 1    
   137   70   71 1    
   138   71  136 1    
   139   71  137 1    
@<TRIPOS>SUBSTRUCTURE
     1 UNK         1 GROUP             0       ****    0 ROOT    
