@<TRIPOS>MOLECULE
3R136
137   139    1
SMALL
USER_CHARGES


@<TRIPOS>ATOM
      1 CA         27.4989   25.1855    4.4085 C.3       0 UNK        -0.1979 
      2 C          27.8334   24.2516    3.2560 C.2       0 UNK         0.4864 
      3 O          27.4785   24.5539    2.1158 O.2       0 UNK        -0.5359 
      4 N          28.4974   23.1241    3.5533 N.am      1 UNK        -0.4318 
      5 CA         28.9398   22.0860    2.6110 C.3       1 UNK         0.0824 
      6 C6         30.1055   22.5572    1.6980 C.3       12 UNK        -0.0944 
      7 S7         31.6277   22.8996    2.6416 S.3       12 UNK        -0.2672 
      8 C8         32.8183   23.1785    1.2909 C.3       12 UNK         0.0333 
      9 C9         32.6369   24.5574    0.6766 C.ar      12 UNK        -0.0807 
     10 C10        33.3564   25.6467    1.1765 C.ar      12 UNK        -0.0894 
     11 C11        33.1586   26.9275    0.6529 C.ar      12 UNK        -0.0804 
     12 C12        32.2402   27.1110   -0.3844 C.ar      12 UNK        -0.0824 
     13 C13        31.4885   26.0352   -0.8656 C.ar      12 UNK        -0.0762 
     14 C14        31.7191   24.7543   -0.3593 C.ar      12 UNK        -0.0782 
     15 C15        30.3638   26.2732   -1.8637 C.3       12 UNK         0.0230 
     16 S16        28.7236   26.1418   -1.0652 S.3       12 UNK        -0.2608 
     17 C17        28.9291   27.2168    0.3986 C.3       12 UNK        -0.0989 
     18 CA         27.6569   28.0078    0.7729 C.3       5 UNK         0.0716 
     19 N          26.5495   27.1324    1.1632 N.am      5 UNK        -0.4135 
     20 C          25.2803   27.5434    1.2954 C.2       4 UNK         0.5031 
     21 O          24.9059   28.6843    1.0126 O.2       4 UNK        -0.5229 
     22 CA         24.2602   26.5233    1.8447 C.3       4 UNK         0.0329 
     23 CB         22.7972   26.9233    1.5543 C.3       4 UNK        -0.2001 
     24 N          24.5069   25.1416    1.4179 N.am      4 UNK        -0.4303 
     25 C          24.5634   24.6769    0.1626 C.2       3 UNK         0.5044 
     26 O          24.4009   25.3605   -0.8517 O.2       3 UNK        -0.5152 
     27 CA         24.8148   23.1736    0.0238 C.3       3 UNK         0.0319 
     28 CB         23.4828   22.4027   -0.0323 C.3       3 UNK        -0.2001 
     29 N          25.5772   22.9469   -1.2009 N.am      3 UNK        -0.4354 
     30 C          26.4782   21.9883   -1.4482 C.2       2 UNK         0.4964 
     31 O          27.1147   21.9635   -2.5011 O.2       2 UNK        -0.5047 
     32 CA         26.7684   20.9202   -0.3777 C.3       2 UNK         0.0288 
     33 CB         27.2617   19.5945   -0.9898 C.3       2 UNK        -0.2113 
     34 N          27.8008   21.4450    0.5107 N.am      2 UNK        -0.4145 
     35 C          27.7414   21.4718    1.8485 C.2       1 UNK         0.5006 
     36 O          26.7927   21.0212    2.4959 O.2       1 UNK        -0.5103 
     37 C          27.9728   29.0010    1.9100 C.2       5 UNK         0.5055 
     38 O          27.9950   28.6050    3.0777 O.2       5 UNK        -0.5220 
     39 N          28.2363   30.2615    1.5486 N.am      6 UNK        -0.4450 
     40 CA         28.5495   31.3443    2.4827 C.3       6 UNK         0.0367 
     41 CB         27.2541   31.8961    3.1145 C.3       6 UNK        -0.1929 
     42 C          29.3889   32.4275    1.7879 C.2       6 UNK         0.5070 
     43 O          29.1520   33.6183    1.9956 O.2       6 UNK        -0.5237 
     44 N          30.3527   32.0027    0.9573 N.am      7 UNK        -0.4739 
     45 CA         31.2838   32.8947    0.2529 C.3       7 UNK         0.0276 
     46 CB         31.9701   32.1190   -0.8837 C.3       7 UNK        -0.1927 
     47 C          32.3312   33.5327    1.1862 C.2       7 UNK         0.5013 
     48 O          32.8529   34.6034    0.8721 O.2       7 UNK        -0.5193 
     49 N          32.6060   32.8705    2.3134 N.am      8 UNK        -0.4253 
     50 CA         33.4890   33.2896    3.3925 C.3       8 UNK         0.0242 
     51 CB         34.9510   32.9762    3.0206 C.3       8 UNK        -0.2000 
     52 C          33.0671   32.5240    4.6518 C.2       8 UNK         0.4948 
     53 O          32.3465   31.5272    4.5470 O.2       8 UNK        -0.5275 
     54 N          33.5638   32.9572    5.8187 N.am      9 UNK        -0.4246 
     55 CA         33.3434   32.2905    7.1112 C.3       9 UNK         0.0261 
     56 CB         33.9612   33.1357    8.2366 C.3       9 UNK        -0.1959 
     57 C          33.8829   30.8471    7.1610 C.2       9 UNK         0.5033 
     58 O          33.3213   30.0106    7.8698 O.2       9 UNK        -0.5390 
     59 N          34.9294   30.5731    6.3686 N.am      10 UNK        -0.4215 
     60 CA         35.5222   29.2511    6.1567 C.3       10 UNK         0.0240 
     61 CB         36.8041   29.4097    5.3221 C.3       10 UNK        -0.1982 
     62 C          34.5774   28.2299    5.4929 C.2       10 UNK         0.4970 
     63 O          34.8297   27.0306    5.6156 O.2       10 UNK        -0.4916 
     64 N          33.5231   28.6995    4.8103 N.am      11 UNK        -0.4279 
     65 CA         32.4925   27.8472    4.1990 C.3       11 UNK         0.1003 
     66 C          31.4939   27.2284    5.2212 C.2       11 UNK         0.5709 
     67 N          31.4672   27.6626    6.4777 N.am      11 UNK        -0.7358 
     68 O          30.7396   26.3250    4.8725 O.2       11 UNK        -0.4999 
     69 C69        31.7343   28.5701    3.0532 C.3       12 UNK        -0.0954 
     70 S70        32.7916   29.4281    1.8333 S.3       12 UNK        -0.2268 
     71 C71        33.9096   28.1177    1.2333 C.3       12 UNK         0.0203 
     72 H72        26.4211   25.3266    4.4812 H         1 UNK         0.0888 
     73 H73        27.8598   24.8024    5.3628 H         1 UNK         0.0888 
     74 H74        27.9606   26.1584    4.2421 H         1 UNK         0.0888 
     75 H75        28.7335   22.9429    4.5184 H         1 UNK         0.3017 
     76 H76        29.3209   21.2688    3.2256 H         1 UNK         0.0873 
     77 H77        29.8147   23.4537    1.1490 H         1 UNK         0.0745 
     78 H78        30.3610   21.7933    0.9616 H         1 UNK         0.0745 
     79 H79        32.7133   22.4024    0.5311 H         1 UNK         0.0705 
     80 H80        33.8295   23.0791    1.6884 H         1 UNK         0.0705 
     81 H81        34.0541   25.4981    1.9894 H         1 UNK         0.1334 
     82 H82        32.0682   28.1059   -0.7721 H         1 UNK         0.1417 
     83 H83        31.1395   23.9223   -0.7342 H         1 UNK         0.1562 
     84 H84        30.4285   25.5446   -2.6731 H         1 UNK         0.0748 
     85 H85        30.4578   27.2571   -2.3259 H         1 UNK         0.0748 
     86 H86        29.7359   27.9218    0.1972 H         1 UNK         0.0940 
     87 H87        29.2647   26.5980    1.2343 H         1 UNK         0.0940 
     88 H88        27.3385   28.5752   -0.1046 H         1 UNK         0.0703 
     89 H89        26.8020   26.1832    1.4309 H         1 UNK         0.3081 
     90 H90        24.3920   26.5315    2.9277 H         1 UNK         0.0719 
     91 H91        22.5616   27.8951    1.9897 H         1 UNK         0.0809 
     92 H92        22.0969   26.2033    1.9776 H         1 UNK         0.0809 
     93 H93        22.6027   26.9911    0.4834 H         1 UNK         0.0809 
     94 H94        24.6889   24.4872    2.1661 H         1 UNK         0.2990 
     95 H95        25.3884   22.8547    0.8937 H         1 UNK         0.0690 
     96 H96        23.6343   21.3284   -0.1302 H         1 UNK         0.0788 
     97 H97        22.8685   22.7275   -0.8734 H         1 UNK         0.0788 
     98 H98        22.9008   22.5639    0.8761 H         1 UNK         0.0788 
     99 H99        25.4463   23.6794   -1.8874 H         1 UNK         0.2993 
    100 H100       25.8512   20.7002    0.1691 H         1 UNK         0.0949 
    101 H101       26.5325   19.1973   -1.6972 H         1 UNK         0.0767 
    102 H102       28.2050   19.7160   -1.5239 H         1 UNK         0.0767 
    103 H103       27.4116   18.8378   -0.2195 H         1 UNK         0.0767 
    104 H104       28.5836   21.8877    0.0507 H         1 UNK         0.3013 
    105 H105       28.1979   30.5198    0.5712 H         1 UNK         0.3121 
    106 H106       29.1771   30.9498    3.2851 H         1 UNK         0.0774 
    107 H107       27.4730   32.6830    3.8374 H         1 UNK         0.0815 
    108 H108       26.5892   32.3180    2.3602 H         1 UNK         0.0815 
    109 H109       26.7061   31.1182    3.6462 H         1 UNK         0.0815 
    110 H110       30.5098   31.0098    0.8572 H         1 UNK         0.2987 
    111 H111       30.7072   33.7093   -0.1916 H         1 UNK         0.0949 
    112 H112       31.2412   31.7100   -1.5835 H         1 UNK         0.0806 
    113 H113       32.6329   32.7718   -1.4536 H         1 UNK         0.0806 
    114 H114       32.5752   31.2942   -0.5068 H         1 UNK         0.0806 
    115 H115       32.1132   32.0072    2.5118 H         1 UNK         0.3010 
    116 H116       33.3629   34.3596    3.5701 H         1 UNK         0.0829 
    117 H117       35.2509   33.5015    2.1137 H         1 UNK         0.0813 
    118 H118       35.6374   33.2845    3.8098 H         1 UNK         0.0813 
    119 H119       35.1015   31.9089    2.8506 H         1 UNK         0.0813 
    120 H120       34.1440   33.7845    5.8270 H         1 UNK         0.3038 
    121 H121       32.2649   32.2377    7.2748 H         1 UNK         0.0769 
    122 H122       35.0392   33.2483    8.1142 H         1 UNK         0.0811 
    123 H123       33.7907   32.6728    9.2098 H         1 UNK         0.0811 
    124 H124       33.5203   34.1321    8.2735 H         1 UNK         0.0811 
    125 H125       35.3209   31.3326    5.8319 H         1 UNK         0.3204 
    126 H126       35.7945   28.8504    7.1354 H         1 UNK         0.0748 
    127 H127       37.2950   28.4468    5.1726 H         1 UNK         0.0771 
    128 H128       36.5944   29.8245    4.3351 H         1 UNK         0.0771 
    129 H129       37.5234   30.0627    5.8169 H         1 UNK         0.0771 
    130 H130       33.3499   29.6967    4.7592 H         1 UNK         0.2980 
    131 H131       33.0043   26.9943    3.7521 H         1 UNK         0.0545 
    132 H132       32.0867   28.3995    6.7860 H         1 UNK         0.3459 
    133 H133       30.8191   27.2457    7.1262 H         1 UNK         0.3459 
    134 H134       31.0544   29.3152    3.4691 H         1 UNK         0.0616 
    135 H135       31.1050   27.8600    2.5142 H         1 UNK         0.0616 
    136 H136       34.5661   27.8106    2.0486 H         1 UNK         0.0634 
    137 H137       34.5559   28.5376    0.4617 H         1 UNK         0.0634 
@<TRIPOS>BOND
     1    1    2 1    
     2    1   72 1    
     3    1   73 1    
     4    1   74 1    
     5    2    3 2    
     6    2    4 am   BACKBONE|DICT|INTERRES
     7    4    5 1    
     8    4   75 1    
     9    5    6 1    
    10    5   35 1    
    11    5   76 1    
    12    6    7 1    
    13    6   77 1    
    14    6   78 1    
    15    7    8 1    
    16    8    9 1    
    17    8   79 1    
    18    8   80 1    
    19    9   10 ar   
    20    9   14 ar   
    21   10   11 ar   
    22   10   81 1    
    23   11   12 ar   
    24   11   71 1    
    25   12   13 ar   
    26   12   82 1    
    27   13   14 ar   
    28   13   15 1    
    29   14   83 1    
    30   15   16 1    
    31   15   84 1    
    32   15   85 1    
    33   16   17 1    
    34   17   18 1    
    35   17   86 1    
    36   17   87 1    
    37   18   19 1    
    38   18   37 1    
    39   18   88 1    
    40   19   20 am   BACKBONE|DICT|INTERRES
    41   19   89 1    
    42   20   21 2    
    43   20   22 1    
    44   22   23 1    
    45   22   24 1    
    46   22   90 1    
    47   23   91 1    
    48   23   92 1    
    49   23   93 1    
    50   24   25 am   BACKBONE|DICT|INTERRES
    51   24   94 1    
    52   25   26 2    
    53   25   27 1    
    54   27   28 1    
    55   27   29 1    
    56   27   95 1    
    57   28   96 1    
    58   28   97 1    
    59   28   98 1    
    60   29   30 am   BACKBONE|DICT|INTERRES
    61   29   99 1    
    62   30   31 2    
    63   30   32 1    
    64   32   33 1    
    65   32   34 1    
    66   32  100 1    
    67   33  101 1    
    68   33  102 1    
    69   33  103 1    
    70   34   35 am   BACKBONE|DICT|INTERRES
    71   34  104 1    
    72   35   36 2    
    73   37   38 2    
    74   37   39 am   BACKBONE|DICT|INTERRES
    75   39   40 1    
    76   39  105 1    
    77   40   41 1    
    78   40   42 1    
    79   40  106 1    
    80   41  107 1    
    81   41  108 1    
    82   41  109 1    
    83   42   43 2    
    84   42   44 am   BACKBONE|DICT|INTERRES
    85   44   45 1    
    86   44  110 1    
    87   45   46 1    
    88   45   47 1    
    89   45  111 1    
    90   46  112 1    
    91   46  113 1    
    92   46  114 1    
    93   47   48 2    
    94   47   49 am   BACKBONE|DICT|INTERRES
    95   49   50 1    
    96   49  115 1    
    97   50   51 1    
    98   50   52 1    
    99   50  116 1    
   100   51  117 1    
   101   51  118 1    
   102   51  119 1    
   103   52   53 2    
   104   52   54 am   BACKBONE|DICT|INTERRES
   105   54   55 1    
   106   54  120 1    
   107   55   56 1    
   108   55   57 1    
   109   55  121 1    
   110   56  122 1    
   111   56  123 1    
   112   56  124 1    
   113   57   58 2    
   114   57   59 am   BACKBONE|DICT|INTERRES
   115   59   60 1    
   116   59  125 1    
   117   60   61 1    
   118   60   62 1    
   119   60  126 1    
   120   61  127 1    
   121   61  128 1    
   122   61  129 1    
   123   62   63 2    
   124   62   64 am   BACKBONE|DICT|INTERRES
   125   64   65 1    
   126   64  130 1    
   127   65   66 1    
   128   65   69 1    
   129   65  131 1    
   130   66   67 am   BACKBONE|DICT|INTERRES
   131   66   68 2    
   132   67  132 1    
   133   67  133 1    
   134   69   70 1    
   135   69  134 1    
   136   69  135 1    
   137   70   71 1    
   138   71  136 1    
   139   71  137 1    
@<TRIPOS>SUBSTRUCTURE
     1 UNK         1 GROUP             0       ****    0 ROOT    
