@<TRIPOS>MOLECULE
3R136
137   139    1
SMALL
USER_CHARGES


@<TRIPOS>ATOM
      1 CA         29.4008   18.0481   -2.4626 C.3       0 UNK        -0.1979 
      2 C          29.4965   19.5624   -2.3504 C.2       0 UNK         0.4864 
      3 O          29.3377   20.2600   -3.3529 O.2       0 UNK        -0.5359 
      4 N          29.7601   20.0718   -1.1395 N.am      1 UNK        -0.4318 
      5 CA         29.8462   21.5021   -0.8188 C.3       1 UNK         0.0824 
      6 C6         30.5063   21.7472    0.5625 C.3       12 UNK        -0.0944 
      7 S7         29.7582   20.7882    1.9250 S.3       12 UNK        -0.2672 
      8 C8         30.9107   21.1577    3.2845 C.3       12 UNK         0.0333 
      9 C9         30.7642   22.5881    3.7842 C.ar      12 UNK        -0.0807 
     10 C10        31.8002   23.5127    3.6159 C.ar      12 UNK        -0.0894 
     11 C11        31.6700   24.8167    4.1049 C.ar      12 UNK        -0.0804 
     12 C12        30.4908   25.1976    4.7529 C.ar      12 UNK        -0.0824 
     13 C13        29.4430   24.2870    4.9100 C.ar      12 UNK        -0.0762 
     14 C14        29.5912   22.9812    4.4346 C.ar      12 UNK        -0.0782 
     15 C15        28.1463   24.7011    5.5867 C.3       12 UNK         0.0230 
     16 S16        26.8376   24.9689    4.3514 S.3       12 UNK        -0.2608 
     17 C17        26.6577   26.7839    4.3491 C.3       12 UNK        -0.0989 
     18 CA         27.7460   27.5511    3.5543 C.3       5 UNK         0.0716 
     19 N          27.9980   26.9684    2.2301 N.am      5 UNK        -0.4135 
     20 C          28.8230   27.4565    1.2905 C.2       4 UNK         0.5031 
     21 O          29.5197   28.4589    1.4454 O.2       4 UNK        -0.5229 
     22 CA         28.8215   26.7660   -0.0851 C.3       4 UNK         0.0329 
     23 CB         30.0122   25.8023   -0.1811 C.3       4 UNK        -0.2001 
     24 N          27.5772   26.0638   -0.4394 N.am      4 UNK        -0.4303 
     25 C          26.3435   26.5996   -0.4232 C.2       3 UNK         0.5044 
     26 O          26.1103   27.7517   -0.0518 O.2       3 UNK        -0.5152 
     27 CA         25.1572   25.7316   -0.8863 C.3       3 UNK         0.0319 
     28 CB         24.5379   26.3106   -2.1695 C.3       3 UNK        -0.2001 
     29 N          25.4745   24.3204   -1.1150 N.am      3 UNK        -0.4354 
     30 C          25.7312   23.4093   -0.1666 C.2       2 UNK         0.4964 
     31 O          25.7633   23.6649    1.0367 O.2       2 UNK        -0.5047 
     32 CA         26.0005   21.9659   -0.6407 C.3       2 UNK         0.0288 
     33 CB         25.5169   21.6807   -2.0816 C.3       2 UNK        -0.2113 
     34 N          27.4071   21.5699   -0.5063 N.am      2 UNK        -0.4145 
     35 C          28.4880   22.2242   -0.9619 C.2       1 UNK         0.5006 
     36 O          28.4455   23.3262   -1.5122 O.2       1 UNK        -0.5103 
     37 C          27.3762   29.0514    3.5090 C.2       5 UNK         0.5055 
     38 O          27.7081   29.7793    4.4455 O.2       5 UNK        -0.5220 
     39 N          26.7332   29.4944    2.4155 N.am      6 UNK        -0.4450 
     40 CA         26.3755   30.8895    2.1460 C.3       6 UNK         0.0367 
     41 CB         25.5193   30.9498    0.8710 C.3       6 UNK        -0.1929 
     42 C          27.5783   31.8471    2.0292 C.2       6 UNK         0.5070 
     43 O          27.3942   33.0508    2.2118 O.2       6 UNK        -0.5237 
     44 N          28.7815   31.3207    1.7491 N.am      7 UNK        -0.4739 
     45 CA         30.0308   32.0888    1.7470 C.3       7 UNK         0.0276 
     46 CB         31.1049   31.3186    0.9616 C.3       7 UNK        -0.1927 
     47 C          30.5299   32.4334    3.1633 C.2       7 UNK         0.5013 
     48 O          31.3500   33.3433    3.2969 O.2       7 UNK        -0.5193 
     49 N          30.0331   31.7203    4.1887 N.am      8 UNK        -0.4253 
     50 CA         30.3144   31.9021    5.6166 C.3       8 UNK         0.0242 
     51 CB         29.5638   33.1457    6.1447 C.3       8 UNK        -0.2000 
     52 C          31.8268   31.9049    5.9096 C.2       8 UNK         0.4948 
     53 O          32.4800   30.8838    5.6966 O.2       8 UNK        -0.5275 
     54 N          32.3682   33.0510    6.3434 N.am      9 UNK        -0.4246 
     55 CA         33.7917   33.2640    6.6193 C.3       9 UNK         0.0261 
     56 CB         33.9766   34.6493    7.2602 C.3       9 UNK        -0.1959 
     57 C          34.7123   33.1126    5.3919 C.2       9 UNK         0.5033 
     58 O          35.9019   32.8516    5.5766 O.2       9 UNK        -0.5390 
     59 N          34.1694   33.2685    4.1749 N.am      10 UNK        -0.4215 
     60 CA         34.9005   33.0748    2.9202 C.3       10 UNK         0.0240 
     61 CB         34.3321   34.0201    1.8472 C.3       10 UNK        -0.1982 
     62 C          34.8917   31.6125    2.4341 C.2       10 UNK         0.4970 
     63 O          35.5843   31.3167    1.4592 O.2       10 UNK        -0.4916 
     64 N          34.1239   30.7263    3.0868 N.am      11 UNK        -0.4279 
     65 CA         34.0934   29.2872    2.7926 C.3       11 UNK         0.1003 
     66 C          35.4262   28.5855    3.1777 C.2       11 UNK         0.5709 
     67 N          35.9026   27.6565    2.3599 N.am      11 UNK        -0.7358 
     68 O          36.0128   28.8543    4.2246 O.2       11 UNK        -0.4999 
     69 C69        32.8722   28.6134    3.4677 C.3       12 UNK        -0.0954 
     70 S70        32.4036   27.0446    2.6636 S.3       12 UNK        -0.2268 
     71 C71        32.8013   25.8193    3.9479 C.3       12 UNK         0.0203 
     72 H72        29.5692   17.5564   -1.5045 H         1 UNK         0.0888 
     73 H73        28.4130   17.7606   -2.8220 H         1 UNK         0.0888 
     74 H74        30.1425   17.6764   -3.1691 H         1 UNK         0.0888 
     75 H75        29.8866   19.4496   -0.3531 H         1 UNK         0.3017 
     76 H76        30.5025   21.9524   -1.5671 H         1 UNK         0.0873 
     77 H77        31.5617   21.4766    0.5039 H         1 UNK         0.0745 
     78 H78        30.4904   22.8056    0.8232 H         1 UNK         0.0745 
     79 H79        31.9329   20.9558    2.9606 H         1 UNK         0.0705 
     80 H80        30.7111   20.4723    4.1094 H         1 UNK         0.0705 
     81 H81        32.7107   23.2159    3.1132 H         1 UNK         0.1334 
     82 H82        30.3915   26.2074    5.1262 H         1 UNK         0.1417 
     83 H83        28.7835   22.2717    4.5562 H         1 UNK         0.1562 
     84 H84        28.2916   25.5948    6.1953 H         1 UNK         0.0748 
     85 H85        27.8278   23.9149    6.2728 H         1 UNK         0.0748 
     86 H86        26.6213   27.1348    5.3827 H         1 UNK         0.0940 
     87 H87        25.6701   26.9945    3.9326 H         1 UNK         0.0940 
     88 H88        28.6860   27.4779    4.1023 H         1 UNK         0.0703 
     89 H89        27.4733   26.1322    2.0152 H         1 UNK         0.3081 
     90 H90        28.9612   27.5506   -0.8312 H         1 UNK         0.0719 
     91 H91        30.9494   26.3159    0.0377 H         1 UNK         0.0809 
     92 H92        30.1065   25.3782   -1.1804 H         1 UNK         0.0809 
     93 H93        29.9156   24.9853    0.5329 H         1 UNK         0.0809 
     94 H94        27.6820   25.1113   -0.7747 H         1 UNK         0.2990 
     95 H95        24.4051   25.7805   -0.0961 H         1 UNK         0.0690 
     96 H96        23.6438   25.7601   -2.4632 H         1 UNK         0.0788 
     97 H97        25.2401   26.2835   -3.0038 H         1 UNK         0.0788 
     98 H98        24.2411   27.3509   -2.0277 H         1 UNK         0.0788 
     99 H99        25.5086   24.0171   -2.0777 H         1 UNK         0.2993 
    100 H100       25.4308   21.3210    0.0304 H         1 UNK         0.0949 
    101 H101       24.4664   21.9466   -2.2085 H         1 UNK         0.0767 
    102 H102       26.0954   22.2262   -2.8284 H         1 UNK         0.0767 
    103 H103       25.6054   20.6198   -2.3165 H         1 UNK         0.0767 
    104 H104       27.5698   20.6967   -0.0249 H         1 UNK         0.3013 
    105 H105       26.5254   28.8308    1.6747 H         1 UNK         0.3121 
    106 H106       25.7678   31.2382    2.9836 H         1 UNK         0.0774 
    107 H107       25.1956   31.9708    0.6641 H         1 UNK         0.0815 
    108 H108       26.0731   30.5994   -0.0011 H         1 UNK         0.0815 
    109 H109       24.6217   30.3383    0.9647 H         1 UNK         0.0815 
    110 H110       28.8690   30.3161    1.6153 H         1 UNK         0.2987 
    111 H111       29.8521   33.0352    1.2316 H         1 UNK         0.0949 
    112 H112       30.7771   31.1082   -0.0563 H         1 UNK         0.0806 
    113 H113       32.0286   31.8927    0.8911 H         1 UNK         0.0806 
    114 H114       31.3506   30.3685    1.4343 H         1 UNK         0.0806 
    115 H115       29.3574   30.9942    3.9771 H         1 UNK         0.3010 
    116 H116       29.9072   31.0271    6.1257 H         1 UNK         0.0829 
    117 H117       28.4893   33.0399    5.9926 H         1 UNK         0.0813 
    118 H118       29.7193   33.2792    7.2162 H         1 UNK         0.0813 
    119 H119       29.8732   34.0623    5.6409 H         1 UNK         0.0813 
    120 H120       31.7597   33.8484    6.4598 H         1 UNK         0.3038 
    121 H121       34.0999   32.5082    7.3448 H         1 UNK         0.0769 
    122 H122       33.6607   35.4496    6.5897 H         1 UNK         0.0811 
    123 H123       35.0237   34.8278    7.5092 H         1 UNK         0.0811 
    124 H124       33.4070   34.7394    8.1854 H         1 UNK         0.0811 
    125 H125       33.1722   33.4520    4.0903 H         1 UNK         0.3204 
    126 H126       35.9468   33.3489    3.0716 H         1 UNK         0.0748 
    127 H127       34.9019   33.9469    0.9199 H         1 UNK         0.0771 
    128 H128       33.2945   33.7915    1.6075 H         1 UNK         0.0771 
    129 H129       34.3783   35.0598    2.1717 H         1 UNK         0.0771 
    130 H130       33.6226   31.0153    3.9184 H         1 UNK         0.2980 
    131 H131       33.9650   29.2010    1.7114 H         1 UNK         0.0545 
    132 H132       35.4153   27.4140    1.5116 H         1 UNK         0.3459 
    133 H133       36.7601   27.1845    2.5992 H         1 UNK         0.3459 
    134 H134       33.0401   28.4779    4.5369 H         1 UNK         0.0616 
    135 H135       31.9986   29.2625    3.3954 H         1 UNK         0.0616 
    136 H136       32.9790   26.2996    4.9103 H         1 UNK         0.0634 
    137 H137       33.7335   25.3195    3.6806 H         1 UNK         0.0634 
@<TRIPOS>BOND
     1    1    2 1    
     2    1   72 1    
     3    1   73 1    
     4    1   74 1    
     5    2    3 2    
     6    2    4 am   BACKBONE|DICT|INTERRES
     7    4    5 1    
     8    4   75 1    
     9    5    6 1    
    10    5   35 1    
    11    5   76 1    
    12    6    7 1    
    13    6   77 1    
    14    6   78 1    
    15    7    8 1    
    16    8    9 1    
    17    8   79 1    
    18    8   80 1    
    19    9   10 ar   
    20    9   14 ar   
    21   10   11 ar   
    22   10   81 1    
    23   11   12 ar   
    24   11   71 1    
    25   12   13 ar   
    26   12   82 1    
    27   13   14 ar   
    28   13   15 1    
    29   14   83 1    
    30   15   16 1    
    31   15   84 1    
    32   15   85 1    
    33   16   17 1    
    34   17   18 1    
    35   17   86 1    
    36   17   87 1    
    37   18   19 1    
    38   18   37 1    
    39   18   88 1    
    40   19   20 am   BACKBONE|DICT|INTERRES
    41   19   89 1    
    42   20   21 2    
    43   20   22 1    
    44   22   23 1    
    45   22   24 1    
    46   22   90 1    
    47   23   91 1    
    48   23   92 1    
    49   23   93 1    
    50   24   25 am   BACKBONE|DICT|INTERRES
    51   24   94 1    
    52   25   26 2    
    53   25   27 1    
    54   27   28 1    
    55   27   29 1    
    56   27   95 1    
    57   28   96 1    
    58   28   97 1    
    59   28   98 1    
    60   29   30 am   BACKBONE|DICT|INTERRES
    61   29   99 1    
    62   30   31 2    
    63   30   32 1    
    64   32   33 1    
    65   32   34 1    
    66   32  100 1    
    67   33  101 1    
    68   33  102 1    
    69   33  103 1    
    70   34   35 am   BACKBONE|DICT|INTERRES
    71   34  104 1    
    72   35   36 2    
    73   37   38 2    
    74   37   39 am   BACKBONE|DICT|INTERRES
    75   39   40 1    
    76   39  105 1    
    77   40   41 1    
    78   40   42 1    
    79   40  106 1    
    80   41  107 1    
    81   41  108 1    
    82   41  109 1    
    83   42   43 2    
    84   42   44 am   BACKBONE|DICT|INTERRES
    85   44   45 1    
    86   44  110 1    
    87   45   46 1    
    88   45   47 1    
    89   45  111 1    
    90   46  112 1    
    91   46  113 1    
    92   46  114 1    
    93   47   48 2    
    94   47   49 am   BACKBONE|DICT|INTERRES
    95   49   50 1    
    96   49  115 1    
    97   50   51 1    
    98   50   52 1    
    99   50  116 1    
   100   51  117 1    
   101   51  118 1    
   102   51  119 1    
   103   52   53 2    
   104   52   54 am   BACKBONE|DICT|INTERRES
   105   54   55 1    
   106   54  120 1    
   107   55   56 1    
   108   55   57 1    
   109   55  121 1    
   110   56  122 1    
   111   56  123 1    
   112   56  124 1    
   113   57   58 2    
   114   57   59 am   BACKBONE|DICT|INTERRES
   115   59   60 1    
   116   59  125 1    
   117   60   61 1    
   118   60   62 1    
   119   60  126 1    
   120   61  127 1    
   121   61  128 1    
   122   61  129 1    
   123   62   63 2    
   124   62   64 am   BACKBONE|DICT|INTERRES
   125   64   65 1    
   126   64  130 1    
   127   65   66 1    
   128   65   69 1    
   129   65  131 1    
   130   66   67 am   BACKBONE|DICT|INTERRES
   131   66   68 2    
   132   67  132 1    
   133   67  133 1    
   134   69   70 1    
   135   69  134 1    
   136   69  135 1    
   137   70   71 1    
   138   71  136 1    
   139   71  137 1    
@<TRIPOS>SUBSTRUCTURE
     1 UNK         1 GROUP             0       ****    0 ROOT    
