@<TRIPOS>MOLECULE
3R136
137   139    1
SMALL
USER_CHARGES


@<TRIPOS>ATOM
      1 CA         27.1267   24.4345    3.0000 C.3       0 UNK        -0.1979 
      2 C          27.7185   23.5914    1.8821 C.2       0 UNK         0.4864 
      3 O          27.8650   24.0804    0.7610 O.2       0 UNK        -0.5359 
      4 N          28.0323   22.3235    2.1912 N.am      1 UNK        -0.4318 
      5 CA         28.7779   21.3546    1.3706 C.3       1 UNK         0.0824 
      6 C6         30.3066   21.6256    1.3876 C.3       12 UNK        -0.0944 
      7 S7         30.9892   21.4932    3.0766 S.3       12 UNK        -0.2672 
      8 C8         32.2980   22.7579    3.0682 C.3       12 UNK         0.0333 
      9 C9         31.7421   24.1752    3.0839 C.ar      12 UNK        -0.0807 
     10 C10        31.1499   24.6883    4.2431 C.ar      12 UNK        -0.0894 
     11 C11        30.6643   25.9997    4.2697 C.ar      12 UNK        -0.0804 
     12 C12        30.7829   26.7986    3.1300 C.ar      12 UNK        -0.0824 
     13 C13        31.3691   26.2981    1.9671 C.ar      12 UNK        -0.0762 
     14 C14        31.8454   24.9843    1.9478 C.ar      12 UNK        -0.0782 
     15 C15        31.4983   27.1798    0.7371 C.3       12 UNK         0.0230 
     16 S16        30.0429   27.0140   -0.3421 S.3       12 UNK        -0.2608 
     17 C17        29.2118   28.6410   -0.2118 C.3       12 UNK        -0.0989 
     18 CA         27.8262   28.6367    0.4890 C.3       5 UNK         0.0716 
     19 N          27.0088   27.5024    0.0596 N.am      5 UNK        -0.4135 
     20 C          25.6723   27.4598    0.0597 C.2       4 UNK         0.5031 
     21 O          24.9569   28.4375    0.2885 O.2       4 UNK        -0.5229 
     22 CA         25.0320   26.0857   -0.2180 C.3       4 UNK         0.0329 
     23 CB         23.5939   26.1842   -0.7718 C.3       4 UNK        -0.2001 
     24 N          25.8725   25.2102   -1.0448 N.am      4 UNK        -0.4303 
     25 C          26.1803   25.3535   -2.3432 C.2       3 UNK         0.5044 
     26 O          25.7886   26.2826   -3.0501 O.2       3 UNK        -0.5152 
     27 CA         27.0791   24.2693   -2.9676 C.3       3 UNK         0.0319 
     28 CB         28.5427   24.7346   -3.0041 C.3       3 UNK        -0.2001 
     29 N          27.0114   22.9835   -2.2693 N.am      3 UNK        -0.4354 
     30 C          25.9582   22.1572   -2.2495 C.2       2 UNK         0.4964 
     31 O          24.9257   22.3621   -2.8886 O.2       2 UNK        -0.5047 
     32 CA         26.0410   20.9028   -1.3553 C.3       2 UNK         0.0288 
     33 CB         26.4383   19.6613   -2.1791 C.3       2 UNK        -0.2113 
     34 N          26.8773   21.0414   -0.1493 N.am      2 UNK        -0.4145 
     35 C          28.2090   21.1890   -0.0572 C.2       1 UNK         0.5006 
     36 O          28.9596   21.2370   -1.0340 O.2       1 UNK        -0.5103 
     37 C          27.9228   28.6670    2.0291 C.2       5 UNK         0.5055 
     38 O          27.6770   27.6492    2.6800 O.2       5 UNK        -0.5220 
     39 N          28.2691   29.8286    2.5987 N.am      6 UNK        -0.4450 
     40 CA         28.3661   30.0452    4.0423 C.3       6 UNK         0.0367 
     41 CB         26.9553   30.1098    4.6665 C.3       6 UNK        -0.1929 
     42 C          29.1410   31.3355    4.3343 C.2       6 UNK         0.5070 
     43 O          29.3732   32.1322    3.4201 O.2       6 UNK        -0.5237 
     44 N          29.4802   31.5243    5.6183 N.am      7 UNK        -0.4739 
     45 CA         30.0253   32.7383    6.2384 C.3       7 UNK         0.0276 
     46 CB         28.9045   33.7922    6.3913 C.3       7 UNK        -0.1927 
     47 C          31.2828   33.2662    5.5244 C.2       7 UNK         0.5013 
     48 O          32.3355   32.6318    5.6153 O.2       7 UNK        -0.5193 
     49 N          31.1457   34.3908    4.8062 N.am      8 UNK        -0.4253 
     50 CA         32.1944   35.0747    4.0409 C.3       8 UNK         0.0242 
     51 CB         31.6098   36.3593    3.4308 C.3       8 UNK        -0.2000 
     52 C          32.8668   34.2193    2.9501 C.2       8 UNK         0.4948 
     53 O          33.9695   34.5617    2.5219 O.2       8 UNK        -0.5275 
     54 N          32.2245   33.1145    2.5428 N.am      9 UNK        -0.4246 
     55 CA         32.8025   32.0940    1.6663 C.3       9 UNK         0.0261 
     56 CB         31.6797   31.1812    1.1573 C.3       9 UNK        -0.1959 
     57 C          33.9214   31.2585    2.3260 C.2       9 UNK         0.5033 
     58 O          34.6360   30.5710    1.5963 O.2       9 UNK        -0.5390 
     59 N          34.0582   31.3379    3.6614 N.am      10 UNK        -0.4215 
     60 CA         35.0540   30.6801    4.5142 C.3       10 UNK         0.0240 
     61 CB         36.4898   31.1103    4.1430 C.3       10 UNK        -0.1982 
     62 C          34.8742   29.1534    4.5358 C.2       10 UNK         0.4970 
     63 O          35.5468   28.4376    3.7912 O.2       10 UNK        -0.4916 
     64 N          33.9544   28.6950    5.3940 N.am      11 UNK        -0.4279 
     65 CA         33.6426   27.2788    5.6434 C.3       11 UNK         0.1003 
     66 C          34.8767   26.4364    6.0702 C.2       11 UNK         0.5709 
     67 N          34.9840   25.2052    5.5890 N.am      11 UNK        -0.7358 
     68 O          35.7056   26.8729    6.8673 O.2       11 UNK        -0.4999 
     69 C69        32.5135   27.1256    6.6973 C.3       12 UNK        -0.0954 
     70 S70        30.9633   27.9569    6.2170 S.3       12 UNK        -0.2268 
     71 C71        30.0144   26.5629    5.5254 C.3       12 UNK         0.0203 
     72 H72        27.9022   25.0698    3.4271 H         1 UNK         0.0888 
     73 H73        26.3362   25.0794    2.6203 H         1 UNK         0.0888 
     74 H74        26.7098   23.8201    3.7975 H         1 UNK         0.0888 
     75 H75        27.8495   22.0084    3.1336 H         1 UNK         0.3017 
     76 H76        28.6209   20.3831    1.8425 H         1 UNK         0.0873 
     77 H77        30.8399   20.9043    0.7655 H         1 UNK         0.0745 
     78 H78        30.5187   22.6110    0.9699 H         1 UNK         0.0745 
     79 H79        32.9450   22.5996    2.2039 H         1 UNK         0.0705 
     80 H80        32.9266   22.6136    3.9480 H         1 UNK         0.0705 
     81 H81        31.0684   24.0635    5.1221 H         1 UNK         0.1334 
     82 H82        30.4207   27.8154    3.1526 H         1 UNK         0.1417 
     83 H83        32.2999   24.5946    1.0471 H         1 UNK         0.1562 
     84 H84        32.3865   26.8965    0.1704 H         1 UNK         0.0748 
     85 H85        31.6545   28.2156    1.0353 H         1 UNK         0.0748 
     86 H86        29.8752   29.3745    0.2404 H         1 UNK         0.0940 
     87 H87        29.0732   28.9910   -1.2359 H         1 UNK         0.0940 
     88 H88        27.3106   29.5534    0.1940 H         1 UNK         0.0703 
     89 H89        27.5166   26.6381   -0.0752 H         1 UNK         0.3081 
     90 H90        24.9643   25.5930    0.7520 H         1 UNK         0.0719 
     91 H91        23.5538   26.7511   -1.7021 H         1 UNK         0.0809 
     92 H92        23.1727   25.1968   -0.9609 H         1 UNK         0.0809 
     93 H93        22.9360   26.6855   -0.0609 H         1 UNK         0.0809 
     94 H94        26.3578   24.4736   -0.5408 H         1 UNK         0.2990 
     95 H95        26.7408   24.1167   -3.9945 H         1 UNK         0.0690 
     96 H96        28.9612   24.8096   -2.0000 H         1 UNK         0.0788 
     97 H97        28.6354   25.7151   -3.4735 H         1 UNK         0.0788 
     98 H98        29.1638   24.0420   -3.5723 H         1 UNK         0.0788 
     99 H99        27.8324   22.7023   -1.7427 H         1 UNK         0.2993 
    100 H100       25.0283   20.7338   -0.9851 H         1 UNK         0.0949 
    101 H101       27.4305   19.7623   -2.6197 H         1 UNK         0.0767 
    102 H102       26.4324   18.7598   -1.5664 H         1 UNK         0.0767 
    103 H103       25.7375   19.4999   -2.9994 H         1 UNK         0.0767 
    104 H104       26.3613   21.0652    0.7198 H         1 UNK         0.3013 
    105 H105       28.4896   30.6452    2.0410 H         1 UNK         0.3121 
    106 H106       28.9201   29.2168    4.4838 H         1 UNK         0.0774 
    107 H107       27.0010   30.2789    5.7428 H         1 UNK         0.0815 
    108 H108       26.3643   30.9181    4.2344 H         1 UNK         0.0815 
    109 H109       26.4061   29.1801    4.5185 H         1 UNK         0.0815 
    110 H110       29.2906   30.7701    6.2642 H         1 UNK         0.2987 
    111 H111       30.3502   32.4577    7.2418 H         1 UNK         0.0949 
    112 H112       28.4640   34.0722    5.4335 H         1 UNK         0.0806 
    113 H113       28.0985   33.4121    7.0192 H         1 UNK         0.0806 
    114 H114       29.2750   34.7002    6.8697 H         1 UNK         0.0806 
    115 H115       30.2260   34.8057    4.7682 H         1 UNK         0.3010 
    116 H116       32.9772   35.3562    4.7482 H         1 UNK         0.0829 
    117 H117       32.3715   36.9129    2.8796 H         1 UNK         0.0813 
    118 H118       30.7983   36.1416    2.7350 H         1 UNK         0.0813 
    119 H119       31.2236   37.0267    4.2015 H         1 UNK         0.0813 
    120 H120       31.3062   32.9171    2.9280 H         1 UNK         0.3038 
    121 H121       33.2423   32.6027    0.8058 H         1 UNK         0.0769 
    122 H122       32.0612   30.4916    0.4036 H         1 UNK         0.0811 
    123 H123       30.8777   31.7558    0.6936 H         1 UNK         0.0811 
    124 H124       31.2495   30.5876    1.9648 H         1 UNK         0.0811 
    125 H125       33.3842   31.9043    4.1721 H         1 UNK         0.3204 
    126 H126       34.8686   31.0429    5.5268 H         1 UNK         0.0748 
    127 H127       37.2128   30.6833    4.8390 H         1 UNK         0.0771 
    128 H128       36.7742   30.7824    3.1428 H         1 UNK         0.0771 
    129 H129       36.6002   32.1940    4.1831 H         1 UNK         0.0771 
    130 H130       33.4406   29.3559    5.9572 H         1 UNK         0.2980 
    131 H131       33.2868   26.8765    4.6940 H         1 UNK         0.0545 
    132 H132       35.7686   24.6372    5.8674 H         1 UNK         0.3459 
    133 H133       34.3037   24.8405    4.9415 H         1 UNK         0.3459 
    134 H134       32.3006   26.0711    6.8832 H         1 UNK         0.0616 
    135 H135       32.8314   27.5403    7.6557 H         1 UNK         0.0616 
    136 H136       29.8998   25.7915    6.2884 H         1 UNK         0.0634 
    137 H137       29.0075   26.9035    5.2803 H         1 UNK         0.0634 
@<TRIPOS>BOND
     1    1    2 1    
     2    1   72 1    
     3    1   73 1    
     4    1   74 1    
     5    2    3 2    
     6    2    4 am   BACKBONE|DICT|INTERRES
     7    4    5 1    
     8    4   75 1    
     9    5    6 1    
    10    5   35 1    
    11    5   76 1    
    12    6    7 1    
    13    6   77 1    
    14    6   78 1    
    15    7    8 1    
    16    8    9 1    
    17    8   79 1    
    18    8   80 1    
    19    9   10 ar   
    20    9   14 ar   
    21   10   11 ar   
    22   10   81 1    
    23   11   12 ar   
    24   11   71 1    
    25   12   13 ar   
    26   12   82 1    
    27   13   14 ar   
    28   13   15 1    
    29   14   83 1    
    30   15   16 1    
    31   15   84 1    
    32   15   85 1    
    33   16   17 1    
    34   17   18 1    
    35   17   86 1    
    36   17   87 1    
    37   18   19 1    
    38   18   37 1    
    39   18   88 1    
    40   19   20 am   BACKBONE|DICT|INTERRES
    41   19   89 1    
    42   20   21 2    
    43   20   22 1    
    44   22   23 1    
    45   22   24 1    
    46   22   90 1    
    47   23   91 1    
    48   23   92 1    
    49   23   93 1    
    50   24   25 am   BACKBONE|DICT|INTERRES
    51   24   94 1    
    52   25   26 2    
    53   25   27 1    
    54   27   28 1    
    55   27   29 1    
    56   27   95 1    
    57   28   96 1    
    58   28   97 1    
    59   28   98 1    
    60   29   30 am   BACKBONE|DICT|INTERRES
    61   29   99 1    
    62   30   31 2    
    63   30   32 1    
    64   32   33 1    
    65   32   34 1    
    66   32  100 1    
    67   33  101 1    
    68   33  102 1    
    69   33  103 1    
    70   34   35 am   BACKBONE|DICT|INTERRES
    71   34  104 1    
    72   35   36 2    
    73   37   38 2    
    74   37   39 am   BACKBONE|DICT|INTERRES
    75   39   40 1    
    76   39  105 1    
    77   40   41 1    
    78   40   42 1    
    79   40  106 1    
    80   41  107 1    
    81   41  108 1    
    82   41  109 1    
    83   42   43 2    
    84   42   44 am   BACKBONE|DICT|INTERRES
    85   44   45 1    
    86   44  110 1    
    87   45   46 1    
    88   45   47 1    
    89   45  111 1    
    90   46  112 1    
    91   46  113 1    
    92   46  114 1    
    93   47   48 2    
    94   47   49 am   BACKBONE|DICT|INTERRES
    95   49   50 1    
    96   49  115 1    
    97   50   51 1    
    98   50   52 1    
    99   50  116 1    
   100   51  117 1    
   101   51  118 1    
   102   51  119 1    
   103   52   53 2    
   104   52   54 am   BACKBONE|DICT|INTERRES
   105   54   55 1    
   106   54  120 1    
   107   55   56 1    
   108   55   57 1    
   109   55  121 1    
   110   56  122 1    
   111   56  123 1    
   112   56  124 1    
   113   57   58 2    
   114   57   59 am   BACKBONE|DICT|INTERRES
   115   59   60 1    
   116   59  125 1    
   117   60   61 1    
   118   60   62 1    
   119   60  126 1    
   120   61  127 1    
   121   61  128 1    
   122   61  129 1    
   123   62   63 2    
   124   62   64 am   BACKBONE|DICT|INTERRES
   125   64   65 1    
   126   64  130 1    
   127   65   66 1    
   128   65   69 1    
   129   65  131 1    
   130   66   67 am   BACKBONE|DICT|INTERRES
   131   66   68 2    
   132   67  132 1    
   133   67  133 1    
   134   69   70 1    
   135   69  134 1    
   136   69  135 1    
   137   70   71 1    
   138   71  136 1    
   139   71  137 1    
@<TRIPOS>SUBSTRUCTURE
     1 UNK         1 GROUP             0       ****    0 ROOT    
