@<TRIPOS>MOLECULE
3R136
137   139    1
SMALL
USER_CHARGES


@<TRIPOS>ATOM
      1 CA         33.2854   19.0390    0.7510 C.3       0 UNK        -0.1979 
      2 C          32.6007   20.3697    1.0236 C.2       0 UNK         0.4864 
      3 O          33.2690   21.4032    1.0717 O.2       0 UNK        -0.5359 
      4 N          31.2718   20.3562    1.1912 N.am      1 UNK        -0.4318 
      5 CA         30.4237   21.5203    1.4841 C.3       1 UNK         0.0824 
      6 C6         29.0992   21.0944    2.1764 C.3       12 UNK        -0.0944 
      7 S7         29.4013   20.1765    3.7305 S.3       12 UNK        -0.2672 
      8 C8         28.7307   21.2909    5.0145 C.3       12 UNK         0.0333 
      9 C9         29.2658   22.7178    4.9376 C.ar      12 UNK        -0.0807 
     10 C10        30.6298   22.9693    4.7563 C.ar      12 UNK        -0.0894 
     11 C11        31.0968   24.2776    4.6090 C.ar      12 UNK        -0.0804 
     12 C12        30.2004   25.3460    4.7004 C.ar      12 UNK        -0.0824 
     13 C13        28.8401   25.1095    4.9171 C.ar      12 UNK        -0.0762 
     14 C14        28.3792   23.7949    5.0328 C.ar      12 UNK        -0.0782 
     15 C15        27.8602   26.2680    4.9973 C.3       12 UNK         0.0230 
     16 S16        27.0077   26.4907    3.4095 S.3       12 UNK        -0.2608 
     17 C17        26.0504   28.0087    3.7324 C.3       12 UNK        -0.0989 
     18 CA         26.8028   29.2797    3.2617 C.3       5 UNK         0.0716 
     19 N          27.2274   29.2575    1.8573 N.am      5 UNK        -0.4135 
     20 C          26.4902   29.0899    0.7523 C.2       4 UNK         0.5031 
     21 O          25.2631   28.9816    0.7544 O.2       4 UNK        -0.5229 
     22 CA         27.2465   29.0932   -0.5876 C.3       4 UNK         0.0329 
     23 CB         27.2624   30.5100   -1.1828 C.3       4 UNK        -0.2001 
     24 N          28.6255   28.6088   -0.4706 N.am      4 UNK        -0.4303 
     25 C          28.9698   27.3284   -0.2769 C.2       3 UNK         0.5044 
     26 O          28.1612   26.3997   -0.2136 O.2       3 UNK        -0.5152 
     27 CA         30.4760   27.0666   -0.0948 C.3       3 UNK         0.0319 
     28 CB         30.9205   27.4620    1.3193 C.3       3 UNK        -0.2001 
     29 N          30.8544   25.6728   -0.3375 N.am      3 UNK        -0.4354 
     30 C          30.8576   25.0844   -1.5411 C.2       2 UNK         0.4964 
     31 O          30.5459   25.6626   -2.5837 O.2       2 UNK        -0.5047 
     32 CA         31.3263   23.6210   -1.6198 C.3       2 UNK         0.0288 
     33 CB         32.7621   23.5517   -2.1671 C.3       2 UNK        -0.2113 
     34 N          31.2835   22.9047   -0.3436 N.am      2 UNK        -0.4145 
     35 C          30.1907   22.3632    0.2091 C.2       1 UNK         0.5006 
     36 O          29.0619   22.4641   -0.2755 O.2       1 UNK        -0.5103 
     37 C          26.0444   30.5679    3.6314 C.2       5 UNK         0.5055 
     38 O          26.3768   31.1891    4.6413 O.2       5 UNK        -0.5220 
     39 N          25.0619   30.9590    2.8097 N.am      6 UNK        -0.4450 
     40 CA         24.2894   32.1929    2.9569 C.3       6 UNK         0.0367 
     41 CB         23.0409   32.1309    2.0618 C.3       6 UNK        -0.1929 
     42 C          25.1261   33.4447    2.6460 C.2       6 UNK         0.5070 
     43 O          25.0911   34.4031    3.4180 O.2       6 UNK        -0.5237 
     44 N          25.8610   33.4135    1.5247 N.am      7 UNK        -0.4739 
     45 CA         26.7352   34.5080    1.0914 C.3       7 UNK         0.0276 
     46 CB         26.9214   34.4548   -0.4341 C.3       7 UNK        -0.1927 
     47 C          28.0933   34.4828    1.8104 C.2       7 UNK         0.5013 
     48 O          28.5737   35.5342    2.2350 O.2       7 UNK        -0.5193 
     49 N          28.6769   33.2862    1.9405 N.am      8 UNK        -0.4253 
     50 CA         29.9441   33.0125    2.6107 C.3       8 UNK         0.0242 
     51 CB         31.1304   33.4902    1.7517 C.3       8 UNK        -0.2000 
     52 C          30.0303   31.5033    2.8489 C.2       8 UNK         0.4948 
     53 O          29.5592   30.7374    2.0037 O.2       8 UNK        -0.5275 
     54 N          30.6286   31.1119    3.9784 N.am      9 UNK        -0.4246 
     55 CA         30.8623   29.7237    4.3782 C.3       9 UNK         0.0261 
     56 CB         30.3242   29.5198    5.8106 C.3       9 UNK        -0.1959 
     57 C          32.3600   29.4004    4.2113 C.2       9 UNK         0.5033 
     58 O          32.9225   29.6939    3.1550 O.2       9 UNK        -0.5390 
     59 N          32.9804   28.8017    5.2388 N.am      10 UNK        -0.4215 
     60 CA         34.4074   28.4717    5.3999 C.3       10 UNK         0.0240 
     61 CB         35.2831   29.7398    5.3533 C.3       10 UNK        -0.1982 
     62 C          34.9674   27.3885    4.4570 C.2       10 UNK         0.4970 
     63 O          35.7937   26.5936    4.9073 O.2       10 UNK        -0.4916 
     64 N          34.5126   27.3590    3.1986 N.am      11 UNK        -0.4279 
     65 CA         34.9637   26.4546    2.1255 C.3       11 UNK         0.1003 
     66 C          36.4574   26.6801    1.7295 C.2       11 UNK         0.5709 
     67 N          37.0821   25.7486    1.0203 N.am      11 UNK        -0.7358 
     68 O          37.0494   27.7222    2.0079 O.2       11 UNK        -0.4999 
     69 C69        34.5997   24.9614    2.3973 C.3       12 UNK        -0.0954 
     70 S70        32.8040   24.6799    2.5082 S.3       12 UNK        -0.2268 
     71 C71        32.5612   24.5332    4.3029 C.3       12 UNK         0.0203 
     72 H72        33.7898   19.0681   -0.2144 H         1 UNK         0.0888 
     73 H73        32.5774   18.2106    0.7400 H         1 UNK         0.0888 
     74 H74        34.0309   18.8378    1.5197 H         1 UNK         0.0888 
     75 H75        30.7794   19.4765    1.1295 H         1 UNK         0.3017 
     76 H76        30.9657   22.1654    2.1766 H         1 UNK         0.0873 
     77 H77        28.4774   21.9672    2.3840 H         1 UNK         0.0745 
     78 H78        28.5096   20.4555    1.5163 H         1 UNK         0.0745 
     79 H79        27.6426   21.2847    4.9330 H         1 UNK         0.0705 
     80 H80        28.9687   20.8791    5.9960 H         1 UNK         0.0705 
     81 H81        31.3229   22.1424    4.6805 H         1 UNK         0.1334 
     82 H82        30.5601   26.3579    4.5788 H         1 UNK         0.1417 
     83 H83        27.3223   23.6142    5.1764 H         1 UNK         0.1562 
     84 H84        28.3789   27.1896    5.2639 H         1 UNK         0.0748 
     85 H85        27.1272   26.0831    5.7842 H         1 UNK         0.0748 
     86 H86        25.8213   28.0678    4.7984 H         1 UNK         0.0940 
     87 H87        25.0887   27.9175    3.2246 H         1 UNK         0.0940 
     88 H88        27.7361   29.3194    3.8252 H         1 UNK         0.0703 
     89 H89        28.2114   29.4808    1.7287 H         1 UNK         0.3081 
     90 H90        26.7060   28.4364   -1.2726 H         1 UNK         0.0719 
     91 H91        27.8382   31.1975   -0.5628 H         1 UNK         0.0809 
     92 H92        27.6998   30.5143   -2.1814 H         1 UNK         0.0809 
     93 H93        26.2518   30.9113   -1.2728 H         1 UNK         0.0809 
     94 H94        29.3531   29.3102   -0.4815 H         1 UNK         0.2990 
     95 H95        31.0178   27.6879   -0.8114 H         1 UNK         0.0690 
     96 H96        31.9888   27.3063    1.4592 H         1 UNK         0.0788 
     97 H97        30.3874   26.8964    2.0847 H         1 UNK         0.0788 
     98 H98        30.7374   28.5196    1.4971 H         1 UNK         0.0788 
     99 H99        31.1109   25.1223    0.4692 H         1 UNK         0.2993 
    100 H100       30.6667   23.1093   -2.3244 H         1 UNK         0.0949 
    101 H101       32.8371   24.0458   -3.1369 H         1 UNK         0.0767 
    102 H102       33.4719   24.0378   -1.4961 H         1 UNK         0.0767 
    103 H103       33.0844   22.5193   -2.3050 H         1 UNK         0.0767 
    104 H104       32.1730   22.7107    0.1103 H         1 UNK         0.3013 
    105 H105       24.8615   30.3658    2.0078 H         1 UNK         0.3121 
    106 H106       23.9577   32.2640    3.9953 H         1 UNK         0.0774 
    107 H107       23.2992   32.0204    1.0079 H         1 UNK         0.0815 
    108 H108       22.4465   33.0405    2.1587 H         1 UNK         0.0815 
    109 H109       22.3980   31.2948    2.3376 H         1 UNK         0.0815 
    110 H110       25.8149   32.5938    0.9385 H         1 UNK         0.2987 
    111 H111       26.2529   35.4586    1.3321 H         1 UNK         0.0949 
    112 H112       27.4173   33.5399   -0.7568 H         1 UNK         0.0806 
    113 H113       25.9648   34.5196   -0.9529 H         1 UNK         0.0806 
    114 H114       27.5315   35.2910   -0.7784 H         1 UNK         0.0806 
    115 H115       28.2149   32.4609    1.5844 H         1 UNK         0.3010 
    116 H116       29.9517   33.5293    3.5727 H         1 UNK         0.0829 
    117 H117       31.1109   34.5698    1.6038 H         1 UNK         0.0813 
    118 H118       32.0811   33.2474    2.2283 H         1 UNK         0.0813 
    119 H119       31.1285   33.0173    0.7688 H         1 UNK         0.0813 
    120 H120       31.0331   31.8174    4.5779 H         1 UNK         0.3038 
    121 H121       30.3149   29.0433    3.7248 H         1 UNK         0.0769 
    122 H122       30.8503   30.1392    6.5385 H         1 UNK         0.0811 
    123 H123       30.4064   28.4801    6.1293 H         1 UNK         0.0811 
    124 H124       29.2669   29.7809    5.8679 H         1 UNK         0.0811 
    125 H125       32.4098   28.5804    6.0431 H         1 UNK         0.3204 
    126 H126       34.4912   28.0630    6.4084 H         1 UNK         0.0748 
    127 H127       36.3236   29.5025    5.5795 H         1 UNK         0.0771 
    128 H128       35.2673   30.2106    4.3697 H         1 UNK         0.0771 
    129 H129       34.9530   30.4778    6.0844 H         1 UNK         0.0771 
    130 H130       33.8881   28.1117    2.9219 H         1 UNK         0.2980 
    131 H131       34.4072   26.7688    1.2422 H         1 UNK         0.0545 
    132 H132       36.6182   24.8942    0.7564 H         1 UNK         0.3459 
    133 H133       38.0396   25.9046    0.7465 H         1 UNK         0.3459 
    134 H134       34.9441   24.3227    1.5833 H         1 UNK         0.0616 
    135 H135       35.0932   24.5903    3.2963 H         1 UNK         0.0616 
    136 H136       33.1815   23.7237    4.6906 H         1 UNK         0.0634 
    137 H137       32.8881   25.4463    4.7992 H         1 UNK         0.0634 
@<TRIPOS>BOND
     1    1    2 1    
     2    1   72 1    
     3    1   73 1    
     4    1   74 1    
     5    2    3 2    
     6    2    4 am   BACKBONE|DICT|INTERRES
     7    4    5 1    
     8    4   75 1    
     9    5    6 1    
    10    5   35 1    
    11    5   76 1    
    12    6    7 1    
    13    6   77 1    
    14    6   78 1    
    15    7    8 1    
    16    8    9 1    
    17    8   79 1    
    18    8   80 1    
    19    9   10 ar   
    20    9   14 ar   
    21   10   11 ar   
    22   10   81 1    
    23   11   12 ar   
    24   11   71 1    
    25   12   13 ar   
    26   12   82 1    
    27   13   14 ar   
    28   13   15 1    
    29   14   83 1    
    30   15   16 1    
    31   15   84 1    
    32   15   85 1    
    33   16   17 1    
    34   17   18 1    
    35   17   86 1    
    36   17   87 1    
    37   18   19 1    
    38   18   37 1    
    39   18   88 1    
    40   19   20 am   BACKBONE|DICT|INTERRES
    41   19   89 1    
    42   20   21 2    
    43   20   22 1    
    44   22   23 1    
    45   22   24 1    
    46   22   90 1    
    47   23   91 1    
    48   23   92 1    
    49   23   93 1    
    50   24   25 am   BACKBONE|DICT|INTERRES
    51   24   94 1    
    52   25   26 2    
    53   25   27 1    
    54   27   28 1    
    55   27   29 1    
    56   27   95 1    
    57   28   96 1    
    58   28   97 1    
    59   28   98 1    
    60   29   30 am   BACKBONE|DICT|INTERRES
    61   29   99 1    
    62   30   31 2    
    63   30   32 1    
    64   32   33 1    
    65   32   34 1    
    66   32  100 1    
    67   33  101 1    
    68   33  102 1    
    69   33  103 1    
    70   34   35 am   BACKBONE|DICT|INTERRES
    71   34  104 1    
    72   35   36 2    
    73   37   38 2    
    74   37   39 am   BACKBONE|DICT|INTERRES
    75   39   40 1    
    76   39  105 1    
    77   40   41 1    
    78   40   42 1    
    79   40  106 1    
    80   41  107 1    
    81   41  108 1    
    82   41  109 1    
    83   42   43 2    
    84   42   44 am   BACKBONE|DICT|INTERRES
    85   44   45 1    
    86   44  110 1    
    87   45   46 1    
    88   45   47 1    
    89   45  111 1    
    90   46  112 1    
    91   46  113 1    
    92   46  114 1    
    93   47   48 2    
    94   47   49 am   BACKBONE|DICT|INTERRES
    95   49   50 1    
    96   49  115 1    
    97   50   51 1    
    98   50   52 1    
    99   50  116 1    
   100   51  117 1    
   101   51  118 1    
   102   51  119 1    
   103   52   53 2    
   104   52   54 am   BACKBONE|DICT|INTERRES
   105   54   55 1    
   106   54  120 1    
   107   55   56 1    
   108   55   57 1    
   109   55  121 1    
   110   56  122 1    
   111   56  123 1    
   112   56  124 1    
   113   57   58 2    
   114   57   59 am   BACKBONE|DICT|INTERRES
   115   59   60 1    
   116   59  125 1    
   117   60   61 1    
   118   60   62 1    
   119   60  126 1    
   120   61  127 1    
   121   61  128 1    
   122   61  129 1    
   123   62   63 2    
   124   62   64 am   BACKBONE|DICT|INTERRES
   125   64   65 1    
   126   64  130 1    
   127   65   66 1    
   128   65   69 1    
   129   65  131 1    
   130   66   67 am   BACKBONE|DICT|INTERRES
   131   66   68 2    
   132   67  132 1    
   133   67  133 1    
   134   69   70 1    
   135   69  134 1    
   136   69  135 1    
   137   70   71 1    
   138   71  136 1    
   139   71  137 1    
@<TRIPOS>SUBSTRUCTURE
     1 UNK         1 GROUP             0       ****    0 ROOT    
