@<TRIPOS>MOLECULE
3R136
137   139    1
SMALL
USER_CHARGES


@<TRIPOS>ATOM
      1 CA         25.0591   20.4216    2.6048 C.3       0 UNK        -0.1979 
      2 C          25.8709   21.4575    1.8416 C.2       0 UNK         0.4864 
      3 O          25.4323   21.9246    0.7904 O.2       0 UNK        -0.5359 
      4 N          27.0510   21.8199    2.3627 N.am      1 UNK        -0.4318 
      5 CA         27.9657   22.7976    1.7576 C.3       1 UNK         0.0824 
      6 C6         29.4171   22.6271    2.2651 C.3       12 UNK        -0.0944 
      7 S7         30.1099   21.0184    1.7657 S.3       12 UNK        -0.2672 
      8 C8         31.7714   21.0993    2.5141 C.3       12 UNK         0.0333 
      9 C9         32.6702   22.2032    1.9568 C.ar      12 UNK        -0.0807 
     10 C10        33.5697   22.8441    2.8141 C.ar      12 UNK        -0.0894 
     11 C11        34.4429   23.8244    2.3341 C.ar      12 UNK        -0.0804 
     12 C12        34.4035   24.1777    0.9824 C.ar      12 UNK        -0.0824 
     13 C13        33.5044   23.5528    0.1128 C.ar      12 UNK        -0.0762 
     14 C14        32.6501   22.5593    0.6021 C.ar      12 UNK        -0.0782 
     15 C15        33.4763   23.9338   -1.3611 C.3       12 UNK         0.0230 
     16 S16        32.7177   25.5661   -1.6347 S.3       12 UNK        -0.2608 
     17 C17        30.9715   25.2313   -1.2275 C.3       12 UNK        -0.0989 
     18 CA         30.0925   26.5088   -1.2757 C.3       5 UNK         0.0716 
     19 N          28.6670   26.1905   -1.3156 N.am      5 UNK        -0.4135 
     20 C          27.9614   25.9581   -2.4284 C.2       4 UNK         0.5031 
     21 O          28.4382   25.9858   -3.5638 O.2       4 UNK        -0.5229 
     22 CA         26.4665   25.6351   -2.2531 C.3       4 UNK         0.0329 
     23 CB         26.2609   24.1232   -2.0691 C.3       4 UNK        -0.2001 
     24 N          25.8508   26.3454   -1.1307 N.am      4 UNK        -0.4303 
     25 C          25.6284   27.6654   -1.0791 C.2       3 UNK         0.5044 
     26 O          25.8697   28.4312   -2.0128 O.2       3 UNK        -0.5152 
     27 CA         25.0682   28.2470    0.2327 C.3       3 UNK         0.0319 
     28 CB         23.5328   28.3747    0.1871 C.3       3 UNK        -0.2001 
     29 N          25.5343   27.5524    1.4413 N.am      3 UNK        -0.4354 
     30 C          25.2119   26.3346    1.8944 C.2       2 UNK         0.4964 
     31 O          24.3851   25.5931    1.3610 O.2       2 UNK        -0.5047 
     32 CA         25.9891   25.8354    3.1240 C.3       2 UNK         0.0288 
     33 CB         25.0755   25.7658    4.3579 C.3       2 UNK        -0.2113 
     34 N          26.5794   24.5171    2.8798 N.am      2 UNK        -0.4145 
     35 C          27.5009   24.2561    1.9404 C.2       1 UNK         0.5006 
     36 O          27.9989   25.1258    1.2234 O.2       1 UNK        -0.5103 
     37 C          30.3849   27.4720   -0.1114 C.2       5 UNK         0.5055 
     38 O          30.9724   28.5316   -0.3360 O.2       5 UNK        -0.5220 
     39 N          29.9738   27.0950    1.1063 N.am      6 UNK        -0.4450 
     40 CA         30.2048   27.8625    2.3277 C.3       6 UNK         0.0367 
     41 CB         30.2817   26.8956    3.5200 C.3       6 UNK        -0.1929 
     42 C          29.1020   28.9077    2.5436 C.2       6 UNK         0.5070 
     43 O          27.9501   28.6706    2.1762 O.2       6 UNK        -0.5237 
     44 N          29.4641   30.0286    3.1693 N.am      7 UNK        -0.4739 
     45 CA         28.5726   31.1367    3.5079 C.3       7 UNK         0.0276 
     46 CB         28.6007   32.1722    2.3646 C.3       7 UNK        -0.1927 
     47 C          28.9747   31.7264    4.8706 C.2       7 UNK         0.5013 
     48 O          29.6785   31.0700    5.6420 O.2       7 UNK        -0.5193 
     49 N          28.5376   32.9633    5.1508 N.am      8 UNK        -0.4253 
     50 CA         28.8364   33.7086    6.3826 C.3       8 UNK         0.0242 
     51 CB         28.0339   35.0198    6.3889 C.3       8 UNK        -0.2000 
     52 C          30.3355   33.9949    6.6015 C.2       8 UNK         0.4948 
     53 O          30.7632   34.1272    7.7481 O.2       8 UNK        -0.5275 
     54 N          31.1083   34.0457    5.5081 N.am      9 UNK        -0.4246 
     55 CA         32.5692   34.1659    5.4975 C.3       9 UNK         0.0261 
     56 CB         32.9828   34.9931    4.2658 C.3       9 UNK        -0.1959 
     57 C          33.2789   32.7938    5.5244 C.2       9 UNK         0.5033 
     58 O          34.4444   32.7143    5.1301 O.2       9 UNK        -0.5390 
     59 N          32.5717   31.7374    5.9565 N.am      10 UNK        -0.4215 
     60 CA         32.9683   30.3270    5.9229 C.3       10 UNK         0.0240 
     61 CB         34.1976   30.0566    6.8223 C.3       10 UNK        -0.1982 
     62 C          33.1110   29.8457    4.4679 C.2       10 UNK         0.4970 
     63 O          32.2780   30.2112    3.6371 O.2       10 UNK        -0.4916 
     64 N          34.1358   29.0372    4.1814 N.am      11 UNK        -0.4279 
     65 CA         34.4331   28.4905    2.8470 C.3       11 UNK         0.1003 
     66 C          34.9551   29.5339    1.8122 C.2       11 UNK         0.5709 
     67 N          35.2212   30.7803    2.1876 N.am      11 UNK        -0.7358 
     68 O          35.1238   29.2038    0.6411 O.2       11 UNK        -0.4999 
     69 C69        35.3866   27.2703    2.9358 C.3       12 UNK        -0.0954 
     70 S70        34.7794   25.9669    4.0607 S.3       12 UNK        -0.2268 
     71 C71        35.4482   24.4685    3.2773 C.3       12 UNK         0.0203 
     72 H72        24.0919   20.8368    2.8870 H         1 UNK         0.0888 
     73 H73        25.5656   20.0933    3.5123 H         1 UNK         0.0888 
     74 H74        24.8851   19.5469    1.9788 H         1 UNK         0.0888 
     75 H75        27.3767   21.3823    3.2132 H         1 UNK         0.3017 
     76 H76        27.9736   22.6224    0.6794 H         1 UNK         0.0873 
     77 H77        29.4656   22.7192    3.3519 H         1 UNK         0.0745 
     78 H78        30.0634   23.4085    1.8597 H         1 UNK         0.0745 
     79 H79        31.6539   21.2127    3.5931 H         1 UNK         0.0705 
     80 H80        32.2678   20.1409    2.3576 H         1 UNK         0.0705 
     81 H81        33.6046   22.5677    3.8593 H         1 UNK         0.1334 
     82 H82        35.0752   24.9345    0.6015 H         1 UNK         0.1417 
     83 H83        31.9700   22.0615   -0.0752 H         1 UNK         0.1562 
     84 H84        32.9441   23.1847   -1.9497 H         1 UNK         0.0748 
     85 H85        34.4971   23.9525   -1.7455 H         1 UNK         0.0748 
     86 H86        30.9039   24.7479   -0.2513 H         1 UNK         0.0940 
     87 H87        30.6049   24.5007   -1.9505 H         1 UNK         0.0940 
     88 H88        30.3360   27.0535   -2.1910 H         1 UNK         0.0703 
     89 H89        28.2020   26.0988   -0.4173 H         1 UNK         0.3081 
     90 H90        25.9528   25.9408   -3.1670 H         1 UNK         0.0719 
     91 H91        26.7325   23.7589   -1.1562 H         1 UNK         0.0809 
     92 H92        25.2019   23.8690   -2.0198 H         1 UNK         0.0809 
     93 H93        26.6893   23.5657   -2.9032 H         1 UNK         0.0809 
     94 H94        25.5700   25.7937   -0.3279 H         1 UNK         0.2990 
     95 H95        25.4748   29.2564    0.3154 H         1 UNK         0.0690 
     96 H96        23.1439   28.8171    1.1041 H         1 UNK         0.0788 
     97 H97        23.0438   27.4109    0.0439 H         1 UNK         0.0788 
     98 H98        23.2239   29.0162   -0.6392 H         1 UNK         0.0788 
     99 H99        26.3243   28.0185    1.8912 H         1 UNK         0.2993 
    100 H100       26.8036   26.5298    3.3390 H         1 UNK         0.0949 
    101 H101       24.6387   26.7419    4.5737 H         1 UNK         0.0767 
    102 H102       24.2522   25.0651    4.2115 H         1 UNK         0.0767 
    103 H103       25.6283   25.4558    5.2450 H         1 UNK         0.0767 
    104 H104       26.1988   23.7432    3.4032 H         1 UNK         0.3013 
    105 H105       29.3918   26.2663    1.2027 H         1 UNK         0.3121 
    106 H106       31.1617   28.3770    2.2388 H         1 UNK         0.0774 
    107 H107       31.0868   26.1715    3.3902 H         1 UNK         0.0815 
    108 H108       29.3508   26.3439    3.6549 H         1 UNK         0.0815 
    109 H109       30.4801   27.4359    4.4467 H         1 UNK         0.0815 
    110 H110       30.4301   30.1323    3.4784 H         1 UNK         0.2987 
    111 H111       27.5529   30.7622    3.6220 H         1 UNK         0.0949 
    112 H112       29.5814   32.6403    2.2698 H         1 UNK         0.0806 
    113 H113       28.3652   31.7055    1.4077 H         1 UNK         0.0806 
    114 H114       27.8653   32.9630    2.5146 H         1 UNK         0.0806 
    115 H115       27.9571   33.4334    4.4711 H         1 UNK         0.3010 
    116 H116       28.5005   33.0984    7.2239 H         1 UNK         0.0829 
    117 H117       26.9616   34.8306    6.3347 H         1 UNK         0.0813 
    118 H118       28.2143   35.5833    7.3057 H         1 UNK         0.0813 
    119 H119       28.3056   35.6647    5.5521 H         1 UNK         0.0813 
    120 H120       30.6645   33.9164    4.6104 H         1 UNK         0.3038 
    121 H121       32.8932   34.7074    6.3887 H         1 UNK         0.0769 
    122 H122       32.7412   34.4782    3.3351 H         1 UNK         0.0811 
    123 H123       34.0566   35.1851    4.2627 H         1 UNK         0.0811 
    124 H124       32.4854   35.9631    4.2533 H         1 UNK         0.0811 
    125 H125       31.5926   31.8854    6.1721 H         1 UNK         0.3204 
    126 H126       32.1278   29.7701    6.3397 H         1 UNK         0.0748 
    127 H127       34.0439   30.4602    7.8232 H         1 UNK         0.0771 
    128 H128       34.3755   28.9867    6.9385 H         1 UNK         0.0771 
    129 H129       35.1092   30.5039    6.4246 H         1 UNK         0.0771 
    130 H130       34.7785   28.7825    4.9160 H         1 UNK         0.2980 
    131 H131       33.4908   28.1250    2.4361 H         1 UNK         0.0545 
    132 H132       35.5567   31.4385    1.5026 H         1 UNK         0.3459 
    133 H133       35.0669   31.0776    3.1393 H         1 UNK         0.3459 
    134 H134       35.5293   26.8378    1.9446 H         1 UNK         0.0616 
    135 H135       36.3749   27.5813    3.2793 H         1 UNK         0.0616 
    136 H136       36.3760   24.6990    2.7513 H         1 UNK         0.0634 
    137 H137       35.7192   23.7616    4.0629 H         1 UNK         0.0634 
@<TRIPOS>BOND
     1    1    2 1    
     2    1   72 1    
     3    1   73 1    
     4    1   74 1    
     5    2    3 2    
     6    2    4 am   BACKBONE|DICT|INTERRES
     7    4    5 1    
     8    4   75 1    
     9    5    6 1    
    10    5   35 1    
    11    5   76 1    
    12    6    7 1    
    13    6   77 1    
    14    6   78 1    
    15    7    8 1    
    16    8    9 1    
    17    8   79 1    
    18    8   80 1    
    19    9   10 ar   
    20    9   14 ar   
    21   10   11 ar   
    22   10   81 1    
    23   11   12 ar   
    24   11   71 1    
    25   12   13 ar   
    26   12   82 1    
    27   13   14 ar   
    28   13   15 1    
    29   14   83 1    
    30   15   16 1    
    31   15   84 1    
    32   15   85 1    
    33   16   17 1    
    34   17   18 1    
    35   17   86 1    
    36   17   87 1    
    37   18   19 1    
    38   18   37 1    
    39   18   88 1    
    40   19   20 am   BACKBONE|DICT|INTERRES
    41   19   89 1    
    42   20   21 2    
    43   20   22 1    
    44   22   23 1    
    45   22   24 1    
    46   22   90 1    
    47   23   91 1    
    48   23   92 1    
    49   23   93 1    
    50   24   25 am   BACKBONE|DICT|INTERRES
    51   24   94 1    
    52   25   26 2    
    53   25   27 1    
    54   27   28 1    
    55   27   29 1    
    56   27   95 1    
    57   28   96 1    
    58   28   97 1    
    59   28   98 1    
    60   29   30 am   BACKBONE|DICT|INTERRES
    61   29   99 1    
    62   30   31 2    
    63   30   32 1    
    64   32   33 1    
    65   32   34 1    
    66   32  100 1    
    67   33  101 1    
    68   33  102 1    
    69   33  103 1    
    70   34   35 am   BACKBONE|DICT|INTERRES
    71   34  104 1    
    72   35   36 2    
    73   37   38 2    
    74   37   39 am   BACKBONE|DICT|INTERRES
    75   39   40 1    
    76   39  105 1    
    77   40   41 1    
    78   40   42 1    
    79   40  106 1    
    80   41  107 1    
    81   41  108 1    
    82   41  109 1    
    83   42   43 2    
    84   42   44 am   BACKBONE|DICT|INTERRES
    85   44   45 1    
    86   44  110 1    
    87   45   46 1    
    88   45   47 1    
    89   45  111 1    
    90   46  112 1    
    91   46  113 1    
    92   46  114 1    
    93   47   48 2    
    94   47   49 am   BACKBONE|DICT|INTERRES
    95   49   50 1    
    96   49  115 1    
    97   50   51 1    
    98   50   52 1    
    99   50  116 1    
   100   51  117 1    
   101   51  118 1    
   102   51  119 1    
   103   52   53 2    
   104   52   54 am   BACKBONE|DICT|INTERRES
   105   54   55 1    
   106   54  120 1    
   107   55   56 1    
   108   55   57 1    
   109   55  121 1    
   110   56  122 1    
   111   56  123 1    
   112   56  124 1    
   113   57   58 2    
   114   57   59 am   BACKBONE|DICT|INTERRES
   115   59   60 1    
   116   59  125 1    
   117   60   61 1    
   118   60   62 1    
   119   60  126 1    
   120   61  127 1    
   121   61  128 1    
   122   61  129 1    
   123   62   63 2    
   124   62   64 am   BACKBONE|DICT|INTERRES
   125   64   65 1    
   126   64  130 1    
   127   65   66 1    
   128   65   69 1    
   129   65  131 1    
   130   66   67 am   BACKBONE|DICT|INTERRES
   131   66   68 2    
   132   67  132 1    
   133   67  133 1    
   134   69   70 1    
   135   69  134 1    
   136   69  135 1    
   137   70   71 1    
   138   71  136 1    
   139   71  137 1    
@<TRIPOS>SUBSTRUCTURE
     1 UNK         1 GROUP             0       ****    0 ROOT    
