@<TRIPOS>MOLECULE
3R136
137   139    1
SMALL
USER_CHARGES


@<TRIPOS>ATOM
      1 CA         29.1298   22.0313    6.0939 C.3       0 UNK        -0.1979 
      2 C          28.5916   22.1244    4.6741 C.2       0 UNK         0.4864 
      3 O          27.5745   21.5040    4.3617 O.2       0 UNK        -0.5359 
      4 N          29.2581   22.9068    3.8176 N.am      1 UNK        -0.4318 
      5 CA         28.8762   23.1400    2.4192 C.3       1 UNK         0.0824 
      6 C6         30.1127   23.4083    1.5269 C.3       12 UNK        -0.0944 
      7 S7         31.2627   21.9957    1.4483 S.3       12 UNK        -0.2672 
      8 C8         32.0452   22.2651   -0.1809 C.3       12 UNK         0.0333 
      9 C9         32.6364   23.6640   -0.3289 C.ar      12 UNK        -0.0807 
     10 C10        33.5467   24.1480    0.6144 C.ar      12 UNK        -0.0894 
     11 C11        34.0503   25.4473    0.5167 C.ar      12 UNK        -0.0804 
     12 C12        33.6645   26.2568   -0.5561 C.ar      12 UNK        -0.0824 
     13 C13        32.7637   25.7832   -1.5144 C.ar      12 UNK        -0.0762 
     14 C14        32.2592   24.4826   -1.3991 C.ar      12 UNK        -0.0782 
     15 C15        32.3438   26.6794   -2.6733 C.3       12 UNK         0.0230 
     16 S16        31.0713   27.8948   -2.1916 S.3       12 UNK        -0.2608 
     17 C17        29.5989   26.8263   -2.0187 C.3       12 UNK        -0.0989 
     18 CA         28.5454   27.3393   -1.0006 C.3       5 UNK         0.0716 
     19 N          27.4110   26.4248   -0.9097 N.am      5 UNK        -0.4135 
     20 C          26.4278   26.3385   -1.8144 C.2       4 UNK         0.5031 
     21 O          26.3251   27.0941   -2.7818 O.2       4 UNK        -0.5229 
     22 CA         25.3917   25.2181   -1.6365 C.3       4 UNK         0.0329 
     23 CB         25.9560   23.8862   -2.1594 C.3       4 UNK        -0.2001 
     24 N          24.9994   25.0554   -0.2370 N.am      4 UNK        -0.4303 
     25 C          23.7818   25.3098    0.2617 C.2       3 UNK         0.5044 
     26 O          22.8282   25.6961   -0.4156 O.2       3 UNK        -0.5152 
     27 CA         23.5788   25.0925    1.7755 C.3       3 UNK         0.0319 
     28 CB         22.9610   23.7100    2.0397 C.3       3 UNK        -0.2001 
     29 N          24.8085   25.2250    2.5617 N.am      3 UNK        -0.4354 
     30 C          25.4980   26.3646    2.7075 C.2       2 UNK         0.4964 
     31 O          25.1232   27.4509    2.2662 O.2       2 UNK        -0.5047 
     32 CA         26.8447   26.2904    3.4481 C.3       2 UNK         0.0288 
     33 CB         26.6580   26.6901    4.9201 C.3       2 UNK        -0.2113 
     34 N          27.5777   25.0180    3.3801 N.am      2 UNK        -0.4145 
     35 C          27.8702   24.3023    2.2805 C.2       1 UNK         0.5006 
     36 O          27.3900   24.5363    1.1699 O.2       1 UNK        -0.5103 
     37 C          29.1125   27.5181    0.4162 C.2       5 UNK         0.5055 
     38 O          29.7634   26.6089    0.9272 O.2       5 UNK        -0.5220 
     39 N          28.8530   28.6791    1.0304 N.am      6 UNK        -0.4450 
     40 CA         29.4190   29.0608    2.3296 C.3       6 UNK         0.0367 
     41 CB         28.3906   29.9116    3.0940 C.3       6 UNK        -0.1929 
     42 C          30.7440   29.8334    2.1953 C.2       6 UNK         0.5070 
     43 O          31.3872   30.0854    3.2171 O.2       6 UNK        -0.5237 
     44 N          31.1099   30.2300    0.9657 N.am      7 UNK        -0.4739 
     45 CA         32.2045   31.1469    0.6235 C.3       7 UNK         0.0276 
     46 CB         33.5770   30.4925    0.8945 C.3       7 UNK        -0.1927 
     47 C          31.9989   32.5104    1.3129 C.2       7 UNK         0.5013 
     48 O          30.8857   33.0390    1.2692 O.2       7 UNK        -0.5193 
     49 N          33.0293   33.0389    1.9845 N.am      8 UNK        -0.4253 
     50 CA         32.9663   34.2529    2.8063 C.3       8 UNK         0.0242 
     51 CB         34.3727   34.8788    2.8719 C.3       8 UNK        -0.2000 
     52 C          32.3733   33.9755    4.2064 C.2       8 UNK         0.4948 
     53 O          32.9372   34.4247    5.2058 O.2       8 UNK        -0.5275 
     54 N          31.2624   33.2217    4.2497 N.am      9 UNK        -0.4246 
     55 CA         30.5585   32.7155    5.4367 C.3       9 UNK         0.0261 
     56 CB         29.8473   33.8679    6.1770 C.3       9 UNK        -0.1959 
     57 C          31.4774   31.8820    6.3544 C.2       9 UNK         0.5033 
     58 O          31.5041   32.1017    7.5678 O.2       9 UNK        -0.5390 
     59 N          32.2374   30.9648    5.7435 N.am      10 UNK        -0.4215 
     60 CA         33.3024   30.1930    6.3873 C.3       10 UNK         0.0240 
     61 CB         34.6583   30.6656    5.8349 C.3       10 UNK        -0.1982 
     62 C          33.1497   28.6787    6.1882 C.2       10 UNK         0.4970 
     63 O          33.5462   27.9235    7.0766 O.2       10 UNK        -0.4916 
     64 N          32.6007   28.2538    5.0436 N.am      11 UNK        -0.4279 
     65 CA         32.4782   26.8377    4.6540 C.3       11 UNK         0.1003 
     66 C          31.1773   26.1487    5.1589 C.2       11 UNK         0.5709 
     67 N          30.3233   26.8216    5.9204 N.am      11 UNK        -0.7358 
     68 O          30.9433   24.9768    4.8713 O.2       11 UNK        -0.4999 
     69 C69        32.6746   26.6467    3.1290 C.3       12 UNK        -0.0954 
     70 S70        34.2436   27.3614    2.5209 S.3       12 UNK        -0.2268 
     71 C71        34.9847   25.9810    1.5930 C.3       12 UNK         0.0203 
     72 H72        28.3794   22.3769    6.8043 H         1 UNK         0.0888 
     73 H73        29.3776   20.9978    6.3340 H         1 UNK         0.0888 
     74 H74        30.0277   22.6348    6.2285 H         1 UNK         0.0888 
     75 H75        30.0598   23.4421    4.1450 H         1 UNK         0.3017 
     76 H76        28.3740   22.2504    2.0331 H         1 UNK         0.0873 
     77 H77        30.6653   24.2780    1.8880 H         1 UNK         0.0745 
     78 H78        29.8036   23.6484    0.5073 H         1 UNK         0.0745 
     79 H79        31.3042   22.0729   -0.9584 H         1 UNK         0.0705 
     80 H80        32.8370   21.5280   -0.3195 H         1 UNK         0.0705 
     81 H81        33.8342   23.5202    1.4468 H         1 UNK         0.1334 
     82 H82        34.0476   27.2652   -0.6309 H         1 UNK         0.1417 
     83 H83        31.5606   24.1121   -2.1367 H         1 UNK         0.1562 
     84 H84        31.9774   26.0831   -3.5105 H         1 UNK         0.0748 
     85 H85        33.2166   27.2176   -3.0459 H         1 UNK         0.0748 
     86 H86        29.9080   25.8201   -1.7372 H         1 UNK         0.0940 
     87 H87        29.1461   26.7315   -3.0067 H         1 UNK         0.0940 
     88 H88        28.1827   28.3098   -1.3467 H         1 UNK         0.0703 
     89 H89        27.4455   25.7648   -0.1333 H         1 UNK         0.3081 
     90 H90        24.5241   25.4771   -2.2471 H         1 UNK         0.0719 
     91 H91        26.2653   23.9745   -3.2019 H         1 UNK         0.0809 
     92 H92        26.8251   23.5603   -1.5860 H         1 UNK         0.0809 
     93 H93        25.2079   23.0949   -2.1098 H         1 UNK         0.0809 
     94 H94        25.7350   24.7664    0.4032 H         1 UNK         0.2990 
     95 H95        22.8761   25.8530    2.1228 H         1 UNK         0.0690 
     96 H96        22.7331   23.5717    3.0968 H         1 UNK         0.0788 
     97 H97        23.6276   22.9039    1.7300 H         1 UNK         0.0788 
     98 H98        22.0262   23.5888    1.4902 H         1 UNK         0.0788 
     99 H99        25.1916   24.3795    2.9594 H         1 UNK         0.2993 
    100 H100       27.4885   27.0306    2.9759 H         1 UNK         0.0949 
    101 H101       26.1183   27.6347    5.0058 H         1 UNK         0.0767 
    102 H102       26.0914   25.9393    5.4724 H         1 UNK         0.0767 
    103 H103       27.6146   26.8271    5.4204 H         1 UNK         0.0767 
    104 H104       28.0235   24.7221    4.2357 H         1 UNK         0.3013 
    105 H105       28.2804   29.3689    0.5636 H         1 UNK         0.3121 
    106 H106       29.6240   28.1671    2.9229 H         1 UNK         0.0774 
    107 H107       28.7238   30.0941    4.1159 H         1 UNK         0.0815 
    108 H108       28.2363   30.8824    2.6211 H         1 UNK         0.0815 
    109 H109       27.4225   29.4153    3.1584 H         1 UNK         0.0815 
    110 H110       30.5120   29.9677    0.1961 H         1 UNK         0.2987 
    111 H111       32.1310   31.3336   -0.4490 H         1 UNK         0.0949 
    112 H112       34.3938   31.1085    0.5170 H         1 UNK         0.0806 
    113 H113       33.6505   29.5292    0.3902 H         1 UNK         0.0806 
    114 H114       33.7504   30.3195    1.9572 H         1 UNK         0.0806 
    115 H115       33.8975   32.5240    2.0084 H         1 UNK         0.3010 
    116 H116       32.3063   34.9754    2.3211 H         1 UNK         0.0829 
    117 H117       35.0834   34.2223    3.3755 H         1 UNK         0.0813 
    118 H118       34.7595   35.0925    1.8753 H         1 UNK         0.0813 
    119 H119       34.3566   35.8230    3.4181 H         1 UNK         0.0813 
    120 H120       30.8903   32.9194    3.3556 H         1 UNK         0.3038 
    121 H121       29.7897   32.0337    5.0726 H         1 UNK         0.0769 
    122 H122       29.2407   33.4882    7.0001 H         1 UNK         0.0811 
    123 H123       29.1812   34.4159    5.5107 H         1 UNK         0.0811 
    124 H124       30.5592   34.5784    6.5984 H         1 UNK         0.0811 
    125 H125       32.0806   30.8035    4.7498 H         1 UNK         0.3204 
    126 H126       33.2973   30.3691    7.4650 H         1 UNK         0.0748 
    127 H127       35.4826   30.1259    6.3032 H         1 UNK         0.0771 
    128 H128       34.7322   30.5073    4.7580 H         1 UNK         0.0771 
    129 H129       34.8139   31.7275    6.0278 H         1 UNK         0.0771 
    130 H130       32.2708   28.9253    4.3571 H         1 UNK         0.2980 
    131 H131       33.2874   26.2857    5.1353 H         1 UNK         0.0545 
    132 H132       30.5185   27.7738    6.1815 H         1 UNK         0.3459 
    133 H133       29.5069   26.3555    6.2779 H         1 UNK         0.3459 
    134 H134       32.6469   25.5843    2.8850 H         1 UNK         0.0616 
    135 H135       31.8576   27.1040    2.5716 H         1 UNK         0.0616 
    136 H136       35.2624   25.1944    2.2963 H         1 UNK         0.0634 
    137 H137       35.9105   26.3229    1.1288 H         1 UNK         0.0634 
@<TRIPOS>BOND
     1    1    2 1    
     2    1   72 1    
     3    1   73 1    
     4    1   74 1    
     5    2    3 2    
     6    2    4 am   BACKBONE|DICT|INTERRES
     7    4    5 1    
     8    4   75 1    
     9    5    6 1    
    10    5   35 1    
    11    5   76 1    
    12    6    7 1    
    13    6   77 1    
    14    6   78 1    
    15    7    8 1    
    16    8    9 1    
    17    8   79 1    
    18    8   80 1    
    19    9   10 ar   
    20    9   14 ar   
    21   10   11 ar   
    22   10   81 1    
    23   11   12 ar   
    24   11   71 1    
    25   12   13 ar   
    26   12   82 1    
    27   13   14 ar   
    28   13   15 1    
    29   14   83 1    
    30   15   16 1    
    31   15   84 1    
    32   15   85 1    
    33   16   17 1    
    34   17   18 1    
    35   17   86 1    
    36   17   87 1    
    37   18   19 1    
    38   18   37 1    
    39   18   88 1    
    40   19   20 am   BACKBONE|DICT|INTERRES
    41   19   89 1    
    42   20   21 2    
    43   20   22 1    
    44   22   23 1    
    45   22   24 1    
    46   22   90 1    
    47   23   91 1    
    48   23   92 1    
    49   23   93 1    
    50   24   25 am   BACKBONE|DICT|INTERRES
    51   24   94 1    
    52   25   26 2    
    53   25   27 1    
    54   27   28 1    
    55   27   29 1    
    56   27   95 1    
    57   28   96 1    
    58   28   97 1    
    59   28   98 1    
    60   29   30 am   BACKBONE|DICT|INTERRES
    61   29   99 1    
    62   30   31 2    
    63   30   32 1    
    64   32   33 1    
    65   32   34 1    
    66   32  100 1    
    67   33  101 1    
    68   33  102 1    
    69   33  103 1    
    70   34   35 am   BACKBONE|DICT|INTERRES
    71   34  104 1    
    72   35   36 2    
    73   37   38 2    
    74   37   39 am   BACKBONE|DICT|INTERRES
    75   39   40 1    
    76   39  105 1    
    77   40   41 1    
    78   40   42 1    
    79   40  106 1    
    80   41  107 1    
    81   41  108 1    
    82   41  109 1    
    83   42   43 2    
    84   42   44 am   BACKBONE|DICT|INTERRES
    85   44   45 1    
    86   44  110 1    
    87   45   46 1    
    88   45   47 1    
    89   45  111 1    
    90   46  112 1    
    91   46  113 1    
    92   46  114 1    
    93   47   48 2    
    94   47   49 am   BACKBONE|DICT|INTERRES
    95   49   50 1    
    96   49  115 1    
    97   50   51 1    
    98   50   52 1    
    99   50  116 1    
   100   51  117 1    
   101   51  118 1    
   102   51  119 1    
   103   52   53 2    
   104   52   54 am   BACKBONE|DICT|INTERRES
   105   54   55 1    
   106   54  120 1    
   107   55   56 1    
   108   55   57 1    
   109   55  121 1    
   110   56  122 1    
   111   56  123 1    
   112   56  124 1    
   113   57   58 2    
   114   57   59 am   BACKBONE|DICT|INTERRES
   115   59   60 1    
   116   59  125 1    
   117   60   61 1    
   118   60   62 1    
   119   60  126 1    
   120   61  127 1    
   121   61  128 1    
   122   61  129 1    
   123   62   63 2    
   124   62   64 am   BACKBONE|DICT|INTERRES
   125   64   65 1    
   126   64  130 1    
   127   65   66 1    
   128   65   69 1    
   129   65  131 1    
   130   66   67 am   BACKBONE|DICT|INTERRES
   131   66   68 2    
   132   67  132 1    
   133   67  133 1    
   134   69   70 1    
   135   69  134 1    
   136   69  135 1    
   137   70   71 1    
   138   71  136 1    
   139   71  137 1    
@<TRIPOS>SUBSTRUCTURE
     1 UNK         1 GROUP             0       ****    0 ROOT    
