@<TRIPOS>MOLECULE
3R136
137   139    1
SMALL
USER_CHARGES


@<TRIPOS>ATOM
      1 CA         27.3929   18.9097    3.8704 C.3       0 UNK        -0.1979 
      2 C          27.8262   20.1877    3.1661 C.2       0 UNK         0.4864 
      3 O          27.7675   21.2595    3.7710 O.2       0 UNK        -0.5359 
      4 N          28.2596   20.0667    1.9018 N.am      1 UNK        -0.4318 
      5 CA         28.7074   21.1423    1.0002 C.3       1 UNK         0.0824 
      6 C6         29.9128   21.9610    1.5490 C.3       12 UNK        -0.0944 
      7 S7         31.3444   20.9026    1.9659 S.3       12 UNK        -0.2672 
      8 C8         32.5329   21.3012    0.6432 C.3       12 UNK         0.0333 
      9 C9         33.0786   22.7151    0.7815 C.ar      12 UNK        -0.0807 
     10 C10        33.9689   23.0269    1.8139 C.ar      12 UNK        -0.0894 
     11 C11        34.4450   24.3320    1.9692 C.ar      12 UNK        -0.0804 
     12 C12        34.0344   25.3252    1.0759 C.ar      12 UNK        -0.0824 
     13 C13        33.1488   25.0254    0.0376 C.ar      12 UNK        -0.0762 
     14 C14        32.6850   23.7150   -0.1131 C.ar      12 UNK        -0.0782 
     15 C15        32.6842   26.1208   -0.9128 C.3       12 UNK         0.0230 
     16 S16        30.8816   26.3694   -0.8372 S.3       12 UNK        -0.2608 
     17 C17        30.6346   26.9302    0.8855 C.3       12 UNK        -0.0989 
     18 CA         29.9648   28.3240    0.9700 C.3       5 UNK         0.0716 
     19 N          28.7155   28.3713    0.2036 N.am      5 UNK        -0.4135 
     20 C          28.0977   29.4886   -0.2037 C.2       4 UNK         0.5031 
     21 O          28.4960   30.6244    0.0449 O.2       4 UNK        -0.5229 
     22 CA         26.7762   29.3137   -0.9734 C.3       4 UNK         0.0329 
     23 CB         27.0505   29.1740   -2.4789 C.3       4 UNK        -0.2001 
     24 N          25.9780   28.1731   -0.5170 N.am      4 UNK        -0.4303 
     25 C          25.5576   27.9731    0.7409 C.2       3 UNK         0.5044 
     26 O          25.7579   28.7662    1.6612 O.2       3 UNK        -0.5152 
     27 CA         24.8607   26.6330    1.0349 C.3       3 UNK         0.0319 
     28 CB         23.3367   26.7831    0.9120 C.3       3 UNK        -0.2001 
     29 N          25.3184   25.5322    0.1761 N.am      3 UNK        -0.4354 
     30 C          26.5763   25.0689    0.1350 C.2       2 UNK         0.4964 
     31 O          27.5002   25.5304    0.8085 O.2       2 UNK        -0.5047 
     32 CA         26.8660   23.9594   -0.8861 C.3       2 UNK         0.0288 
     33 CB         27.4161   24.5665   -2.1878 C.3       2 UNK        -0.2113 
     34 N          27.8358   22.9995   -0.3568 N.am      2 UNK        -0.4145 
     35 C          27.5363   22.0415    0.5317 C.2       1 UNK         0.5006 
     36 O          26.3843   21.8341    0.9259 O.2       1 UNK        -0.5103 
     37 C          29.7740   28.7424    2.4450 C.2       5 UNK         0.5055 
     38 O          30.7661   29.0466    3.1108 O.2       5 UNK        -0.5220 
     39 N          28.5254   28.7403    2.9357 N.am      6 UNK        -0.4450 
     40 CA         28.1467   29.2484    4.2533 C.3       6 UNK         0.0367 
     41 CB         27.0690   28.3404    4.8676 C.3       6 UNK        -0.1929 
     42 C          27.6469   30.6979    4.1567 C.2       6 UNK         0.5070 
     43 O          27.9558   31.4947    5.0418 O.2       6 UNK        -0.5237 
     44 N          26.8955   31.0203    3.0913 N.am      7 UNK        -0.4739 
     45 CA         26.3862   32.3646    2.7991 C.3       7 UNK         0.0276 
     46 CB         25.3943   32.3013    1.6267 C.3       7 UNK        -0.1927 
     47 C          27.5158   33.3689    2.5160 C.2       7 UNK         0.5013 
     48 O          27.5618   34.4260    3.1462 O.2       7 UNK        -0.5193 
     49 N          28.4361   32.9938    1.6192 N.am      8 UNK        -0.4253 
     50 CA         29.7261   33.6476    1.4227 C.3       8 UNK         0.0242 
     51 CB         30.0255   33.7438   -0.0851 C.3       8 UNK        -0.2000 
     52 C          30.7518   32.7987    2.1840 C.2       8 UNK         0.4948 
     53 O          31.4479   31.9878    1.5723 O.2       8 UNK        -0.5275 
     54 N          30.7358   32.9540    3.5165 N.am      9 UNK        -0.4246 
     55 CA         31.3979   32.1261    4.5290 C.3       9 UNK         0.0261 
     56 CB         31.2643   32.8123    5.8998 C.3       9 UNK        -0.1959 
     57 C          32.8664   31.7831    4.2237 C.2       9 UNK         0.5033 
     58 O          33.7420   32.6350    4.3957 O.2       9 UNK        -0.5390 
     59 N          33.0901   30.5410    3.7810 N.am      10 UNK        -0.4215 
     60 CA         34.4011   29.9465    3.5393 C.3       10 UNK         0.0240 
     61 CB         34.2852   28.9627    2.3562 C.3       10 UNK        -0.1982 
     62 C          34.9126   29.3075    4.8435 C.2       10 UNK         0.4970 
     63 O          35.2767   30.0326    5.7702 O.2       10 UNK        -0.4916 
     64 N          34.9248   27.9708    4.9037 N.am      11 UNK        -0.4279 
     65 CA         35.2823   27.1757    6.0895 C.3       11 UNK         0.1003 
     66 C          34.2205   27.1811    7.2303 C.2       11 UNK         0.5709 
     67 N          33.0068   27.6749    7.0121 N.am      11 UNK        -0.7358 
     68 O          34.5118   26.7417    8.3404 O.2       11 UNK        -0.4999 
     69 C69        35.7136   25.7354    5.6989 C.3       12 UNK        -0.0954 
     70 S70        34.4793   24.8624    4.6722 S.3       12 UNK        -0.2268 
     71 C71        35.3900   24.6750    3.1090 C.3       12 UNK         0.0203 
     72 H72        27.5033   18.0331    3.2323 H         1 UNK         0.0888 
     73 H73        27.9934   18.7536    4.7664 H         1 UNK         0.0888 
     74 H74        26.3473   18.9823    4.1686 H         1 UNK         0.0888 
     75 H75        28.2534   19.1480    1.4817 H         1 UNK         0.3017 
     76 H76        29.0495   20.6314    0.0986 H         1 UNK         0.0873 
     77 H77        30.2322   22.7144    0.8295 H         1 UNK         0.0745 
     78 H78        29.6295   22.5186    2.4428 H         1 UNK         0.0745 
     79 H79        32.0570   21.1552   -0.3278 H         1 UNK         0.0705 
     80 H80        33.3606   20.5920    0.6881 H         1 UNK         0.0705 
     81 H81        34.2723   22.2581    2.5117 H         1 UNK         0.1334 
     82 H82        34.4001   26.3348    1.1923 H         1 UNK         0.1417 
     83 H83        31.9972   23.4840   -0.9151 H         1 UNK         0.1562 
     84 H84        32.9616   25.8493   -1.9322 H         1 UNK         0.0748 
     85 H85        33.1828   27.0677   -0.6991 H         1 UNK         0.0748 
     86 H86        31.5941   26.9461    1.4047 H         1 UNK         0.0940 
     87 H87        30.0318   26.1786    1.3988 H         1 UNK         0.0940 
     88 H88        30.6495   29.0521    0.5286 H         1 UNK         0.0703 
     89 H89        28.3006   27.4719   -0.0051 H         1 UNK         0.3081 
     90 H90        26.1791   30.2134   -0.8176 H         1 UNK         0.0719 
     91 H91        27.6269   30.0229   -2.8499 H         1 UNK         0.0809 
     92 H92        26.1232   29.1406   -3.0511 H         1 UNK         0.0809 
     93 H93        27.6191   28.2707   -2.7050 H         1 UNK         0.0809 
     94 H94        25.7612   27.4667   -1.2044 H         1 UNK         0.2990 
     95 H95        25.0965   26.3661    2.0673 H         1 UNK         0.0690 
     96 H96        22.8223   25.8688    1.2089 H         1 UNK         0.0788 
     97 H97        23.0337   27.0245   -0.1076 H         1 UNK         0.0788 
     98 H98        22.9706   27.5822    1.5586 H         1 UNK         0.0788 
     99 H99        24.6216   25.1053   -0.4182 H         1 UNK         0.2993 
    100 H100       25.9373   23.4311   -1.1143 H         1 UNK         0.0949 
    101 H101       26.7021   25.2634   -2.6287 H         1 UNK         0.0767 
    102 H102       28.3440   25.1144   -2.0191 H         1 UNK         0.0767 
    103 H103       27.6139   23.7950   -2.9323 H         1 UNK         0.0767 
    104 H104       28.7973   23.1402   -0.6280 H         1 UNK         0.3013 
    105 H105       27.7628   28.4824    2.3214 H         1 UNK         0.3121 
    106 H106       29.0122   29.2366    4.9195 H         1 UNK         0.0774 
    107 H107       26.7956   28.6845    5.8659 H         1 UNK         0.0815 
    108 H108       26.1576   28.3232    4.2694 H         1 UNK         0.0815 
    109 H109       27.4249   27.3147    4.9645 H         1 UNK         0.0815 
    110 H110       26.6159   30.2803    2.4537 H         1 UNK         0.2987 
    111 H111       25.8467   32.7128    3.6826 H         1 UNK         0.0949 
    112 H112       24.5752   31.6127    1.8358 H         1 UNK         0.0806 
    113 H113       24.9549   33.2812    1.4361 H         1 UNK         0.0806 
    114 H114       25.8771   31.9769    0.7053 H         1 UNK         0.0806 
    115 H115       28.3393   32.0893    1.1592 H         1 UNK         0.3010 
    116 H116       29.7272   34.6584    1.8366 H         1 UNK         0.0829 
    117 H117       29.2787   34.3504   -0.5971 H         1 UNK         0.0813 
    118 H118       30.9975   34.2068   -0.2586 H         1 UNK         0.0813 
    119 H119       30.0413   32.7632   -0.5624 H         1 UNK         0.0813 
    120 H120       30.0957   33.6440    3.8841 H         1 UNK         0.3038 
    121 H121       30.8347   31.1939    4.5852 H         1 UNK         0.0769 
    122 H122       31.7271   33.8000    5.9040 H         1 UNK         0.0811 
    123 H123       31.7471   32.2224    6.6802 H         1 UNK         0.0811 
    124 H124       30.2184   32.9287    6.1852 H         1 UNK         0.0811 
    125 H125       32.2800   29.9467    3.6032 H         1 UNK         0.3204 
    126 H126       35.1122   30.7264    3.2588 H         1 UNK         0.0748 
    127 H127       35.2414   28.4808    2.1473 H         1 UNK         0.0771 
    128 H128       33.5416   28.1858    2.5382 H         1 UNK         0.0771 
    129 H129       33.9874   29.4865    1.4471 H         1 UNK         0.0771 
    130 H130       34.5885   27.4418    4.1136 H         1 UNK         0.2980 
    131 H131       36.1621   27.6496    6.5291 H         1 UNK         0.0545 
    132 H132       32.7539   28.0284    6.1046 H         1 UNK         0.3459 
    133 H133       32.3343   27.6757    7.7623 H         1 UNK         0.3459 
    134 H134       36.6625   25.7778    5.1624 H         1 UNK         0.0616 
    135 H135       35.9147   25.1325    6.5864 H         1 UNK         0.0616 
    136 H136       35.9288   25.5970    2.8842 H         1 UNK         0.0634 
    137 H137       36.1432   23.8935    3.2201 H         1 UNK         0.0634 
@<TRIPOS>BOND
     1    1    2 1    
     2    1   72 1    
     3    1   73 1    
     4    1   74 1    
     5    2    3 2    
     6    2    4 am   BACKBONE|DICT|INTERRES
     7    4    5 1    
     8    4   75 1    
     9    5    6 1    
    10    5   35 1    
    11    5   76 1    
    12    6    7 1    
    13    6   77 1    
    14    6   78 1    
    15    7    8 1    
    16    8    9 1    
    17    8   79 1    
    18    8   80 1    
    19    9   10 ar   
    20    9   14 ar   
    21   10   11 ar   
    22   10   81 1    
    23   11   12 ar   
    24   11   71 1    
    25   12   13 ar   
    26   12   82 1    
    27   13   14 ar   
    28   13   15 1    
    29   14   83 1    
    30   15   16 1    
    31   15   84 1    
    32   15   85 1    
    33   16   17 1    
    34   17   18 1    
    35   17   86 1    
    36   17   87 1    
    37   18   19 1    
    38   18   37 1    
    39   18   88 1    
    40   19   20 am   BACKBONE|DICT|INTERRES
    41   19   89 1    
    42   20   21 2    
    43   20   22 1    
    44   22   23 1    
    45   22   24 1    
    46   22   90 1    
    47   23   91 1    
    48   23   92 1    
    49   23   93 1    
    50   24   25 am   BACKBONE|DICT|INTERRES
    51   24   94 1    
    52   25   26 2    
    53   25   27 1    
    54   27   28 1    
    55   27   29 1    
    56   27   95 1    
    57   28   96 1    
    58   28   97 1    
    59   28   98 1    
    60   29   30 am   BACKBONE|DICT|INTERRES
    61   29   99 1    
    62   30   31 2    
    63   30   32 1    
    64   32   33 1    
    65   32   34 1    
    66   32  100 1    
    67   33  101 1    
    68   33  102 1    
    69   33  103 1    
    70   34   35 am   BACKBONE|DICT|INTERRES
    71   34  104 1    
    72   35   36 2    
    73   37   38 2    
    74   37   39 am   BACKBONE|DICT|INTERRES
    75   39   40 1    
    76   39  105 1    
    77   40   41 1    
    78   40   42 1    
    79   40  106 1    
    80   41  107 1    
    81   41  108 1    
    82   41  109 1    
    83   42   43 2    
    84   42   44 am   BACKBONE|DICT|INTERRES
    85   44   45 1    
    86   44  110 1    
    87   45   46 1    
    88   45   47 1    
    89   45  111 1    
    90   46  112 1    
    91   46  113 1    
    92   46  114 1    
    93   47   48 2    
    94   47   49 am   BACKBONE|DICT|INTERRES
    95   49   50 1    
    96   49  115 1    
    97   50   51 1    
    98   50   52 1    
    99   50  116 1    
   100   51  117 1    
   101   51  118 1    
   102   51  119 1    
   103   52   53 2    
   104   52   54 am   BACKBONE|DICT|INTERRES
   105   54   55 1    
   106   54  120 1    
   107   55   56 1    
   108   55   57 1    
   109   55  121 1    
   110   56  122 1    
   111   56  123 1    
   112   56  124 1    
   113   57   58 2    
   114   57   59 am   BACKBONE|DICT|INTERRES
   115   59   60 1    
   116   59  125 1    
   117   60   61 1    
   118   60   62 1    
   119   60  126 1    
   120   61  127 1    
   121   61  128 1    
   122   61  129 1    
   123   62   63 2    
   124   62   64 am   BACKBONE|DICT|INTERRES
   125   64   65 1    
   126   64  130 1    
   127   65   66 1    
   128   65   69 1    
   129   65  131 1    
   130   66   67 am   BACKBONE|DICT|INTERRES
   131   66   68 2    
   132   67  132 1    
   133   67  133 1    
   134   69   70 1    
   135   69  134 1    
   136   69  135 1    
   137   70   71 1    
   138   71  136 1    
   139   71  137 1    
@<TRIPOS>SUBSTRUCTURE
     1 UNK         1 GROUP             0       ****    0 ROOT    
