@<TRIPOS>MOLECULE
3R136
137   139    1
SMALL
USER_CHARGES


@<TRIPOS>ATOM
      1 CA         28.4879   24.1140    4.0199 C.3       0 UNK        -0.1979 
      2 C          28.2335   22.6906    3.5555 C.2       0 UNK         0.4864 
      3 O          27.3717   22.0084    4.1140 O.2       0 UNK        -0.5359 
      4 N          28.9647   22.2323    2.5301 N.am      1 UNK        -0.4318 
      5 CA         28.8658   20.8818    1.9588 C.3       1 UNK         0.0824 
      6 C6         30.1701   20.4363    1.2416 C.3       12 UNK        -0.0944 
      7 S7         31.6547   20.5581    2.3031 S.3       12 UNK        -0.2672 
      8 C8         32.6789   21.7823    1.4182 C.3       12 UNK         0.0333 
      9 C9         32.0195   23.1529    1.3865 C.ar      12 UNK        -0.0807 
     10 C10        32.1116   24.0076    2.4902 C.ar      12 UNK        -0.0894 
     11 C11        31.4537   25.2415    2.4857 C.ar      12 UNK        -0.0804 
     12 C12        30.6867   25.6041    1.3755 C.ar      12 UNK        -0.0824 
     13 C13        30.6225   24.7780    0.2514 C.ar      12 UNK        -0.0762 
     14 C14        31.3006   23.5583    0.2580 C.ar      12 UNK        -0.0782 
     15 C15        29.7822   25.1771   -0.9504 C.3       12 UNK         0.0230 
     16 S16        30.7155   26.1044   -2.2105 S.3       12 UNK        -0.2608 
     17 C17        31.1632   27.6731   -1.3850 C.3       12 UNK        -0.0989 
     18 CA         30.0420   28.7476   -1.4479 C.3       5 UNK         0.0716 
     19 N          28.9327   28.4241   -0.5396 N.am      5 UNK        -0.4135 
     20 C          27.6511   28.2963   -0.8991 C.2       4 UNK         0.5031 
     21 O          27.2284   28.4564   -2.0464 O.2       4 UNK        -0.5229 
     22 CA         26.6676   27.9114    0.2146 C.3       4 UNK         0.0329 
     23 CB         25.6934   29.0656    0.5042 C.3       4 UNK        -0.2001 
     24 N          25.9168   26.7337   -0.2194 N.am      4 UNK        -0.4303 
     25 C          26.1570   25.4842    0.1943 C.2       3 UNK         0.5044 
     26 O          26.9579   25.1915    1.0867 O.2       3 UNK        -0.5152 
     27 CA         25.4057   24.3673   -0.5403 C.3       3 UNK         0.0319 
     28 CB         25.9843   24.1564   -1.9545 C.3       3 UNK        -0.2001 
     29 N          25.5253   23.1401    0.2422 N.am      3 UNK        -0.4354 
     30 C          24.7987   22.0261    0.0952 C.2       2 UNK         0.4964 
     31 O          23.9071   21.9066   -0.7472 O.2       2 UNK        -0.5047 
     32 CA         25.0907   20.8594    1.0643 C.3       2 UNK         0.0288 
     33 CB         24.7987   19.4782    0.4380 C.3       2 UNK        -0.2113 
     34 N          26.4333   20.8916    1.6626 N.am      2 UNK        -0.4145 
     35 C          27.6203   20.7653    1.0491 C.2       1 UNK         0.5006 
     36 O          27.7524   20.5978   -0.1649 O.2       1 UNK        -0.5103 
     37 C          30.6110   30.1542   -1.1530 C.2       5 UNK         0.5055 
     38 O          31.5142   30.5955   -1.8657 O.2       5 UNK        -0.5220 
     39 N          30.0937   30.8394   -0.1259 N.am      6 UNK        -0.4450 
     40 CA         30.5080   32.1627    0.3246 C.3       6 UNK         0.0367 
     41 CB         31.8056   32.0524    1.1489 C.3       6 UNK        -0.1929 
     42 C          29.3644   32.7655    1.1499 C.2       6 UNK         0.5070 
     43 O          28.4620   32.0352    1.5695 O.2       6 UNK        -0.5237 
     44 N          29.4231   34.0849    1.3711 N.am      7 UNK        -0.4739 
     45 CA         28.4300   34.8493    2.1382 C.3       7 UNK         0.0276 
     46 CB         28.5929   36.3439    1.8146 C.3       7 UNK        -0.1927 
     47 C          28.5007   34.6195    3.6609 C.2       7 UNK         0.5013 
     48 O          27.5414   34.9411    4.3634 O.2       7 UNK        -0.5193 
     49 N          29.6233   34.0767    4.1408 N.am      8 UNK        -0.4253 
     50 CA         29.8700   33.6710    5.5194 C.3       8 UNK         0.0242 
     51 CB         30.6334   34.7856    6.2553 C.3       8 UNK        -0.2000 
     52 C          30.6871   32.3764    5.4777 C.2       8 UNK         0.4948 
     53 O          31.3401   32.1033    4.4667 O.2       8 UNK        -0.5275 
     54 N          30.6725   31.6130    6.5770 N.am      9 UNK        -0.4246 
     55 CA         31.3032   30.2926    6.7182 C.3       9 UNK         0.0261 
     56 CB         30.6794   29.5718    7.9283 C.3       9 UNK        -0.1959 
     57 C          32.8488   30.3056    6.7755 C.2       9 UNK         0.5033 
     58 O          33.4414   29.5292    7.5274 O.2       9 UNK        -0.5390 
     59 N          33.4879   31.1457    5.9509 N.am      10 UNK        -0.4215 
     60 CA         34.9413   31.2185    5.7559 C.3       10 UNK         0.0240 
     61 CB         35.2708   32.4401    4.8830 C.3       10 UNK        -0.1982 
     62 C          35.5275   29.9347    5.1379 C.2       10 UNK         0.4970 
     63 O          36.6980   29.6270    5.3638 O.2       10 UNK        -0.4916 
     64 N          34.6864   29.2027    4.3995 N.am      11 UNK        -0.4279 
     65 CA         34.9134   27.8400    3.9067 C.3       11 UNK         0.1003 
     66 C          34.9707   26.7395    5.0095 C.2       11 UNK         0.5709 
     67 N          34.6071   27.0111    6.2587 N.am      11 UNK        -0.7358 
     68 O          35.3644   25.6116    4.7234 O.2       11 UNK        -0.4999 
     69 C69        33.8954   27.4861    2.7879 C.3       12 UNK        -0.0954 
     70 S70        32.1555   27.8296    3.2409 S.3       12 UNK        -0.2268 
     71 C71        31.5447   26.1726    3.6880 C.3       12 UNK         0.0203 
     72 H72        28.6518   24.7768    3.1719 H         1 UNK         0.0888 
     73 H73        27.6316   24.4948    4.5761 H         1 UNK         0.0888 
     74 H74        29.3614   24.1473    4.6699 H         1 UNK         0.0888 
     75 H75        29.6618   22.8320    2.1083 H         1 UNK         0.3017 
     76 H76        28.7118   20.1815    2.7831 H         1 UNK         0.0873 
     77 H77        30.0803   19.3940    0.9300 H         1 UNK         0.0745 
     78 H78        30.3237   21.0001    0.3223 H         1 UNK         0.0745 
     79 H79        33.6488   21.8548    1.9125 H         1 UNK         0.0705 
     80 H80        32.8789   21.4249    0.4067 H         1 UNK         0.0705 
     81 H81        32.6830   23.7030    3.3568 H         1 UNK         0.1334 
     82 H82        30.1485   26.5399    1.3872 H         1 UNK         0.1417 
     83 H83        31.2441   22.9138   -0.6087 H         1 UNK         0.1562 
     84 H84        28.9212   25.7553   -0.6297 H         1 UNK         0.0748 
     85 H85        29.3730   24.2812   -1.4190 H         1 UNK         0.0748 
     86 H86        32.0552   28.0265   -1.9064 H         1 UNK         0.0940 
     87 H87        31.4901   27.4941   -0.3612 H         1 UNK         0.0940 
     88 H88        29.6798   28.7923   -2.4772 H         1 UNK         0.0703 
     89 H89        29.1820   28.2829    0.4279 H         1 UNK         0.3081 
     90 H90        27.2198   27.6961    1.1322 H         1 UNK         0.0719 
     91 H91        25.1143   29.3410   -0.3783 H         1 UNK         0.0809 
     92 H92        24.9914   28.8005    1.2950 H         1 UNK         0.0809 
     93 H93        26.2307   29.9566    0.8332 H         1 UNK         0.0809 
     94 H94        25.2891   26.8772   -0.9986 H         1 UNK         0.2990 
     95 H95        24.3521   24.6464   -0.6066 H         1 UNK         0.0690 
     96 H96        25.4130   23.4150   -2.5130 H         1 UNK         0.0788 
     97 H97        27.0192   23.8159   -1.9162 H         1 UNK         0.0788 
     98 H98        25.9640   25.0785   -2.5367 H         1 UNK         0.0788 
     99 H99        26.2197   23.1951    0.9775 H         1 UNK         0.2993 
    100 H100       24.3949   20.9922    1.8942 H         1 UNK         0.0949 
    101 H101       23.7529   19.3958    0.1391 H         1 UNK         0.0767 
    102 H102       25.4042   19.3004   -0.4513 H         1 UNK         0.0767 
    103 H103       24.9949   18.6722    1.1451 H         1 UNK         0.0767 
    104 H104       26.4680   21.1021    2.6580 H         1 UNK         0.3013 
    105 H105       29.2925   30.4807    0.3781 H         1 UNK         0.3121 
    106 H106       30.6750   32.8034   -0.5441 H         1 UNK         0.0774 
    107 H107       32.0921   33.0127    1.5790 H         1 UNK         0.0815 
    108 H108       31.6965   31.3440    1.9708 H         1 UNK         0.0815 
    109 H109       32.6392   31.7156    0.5328 H         1 UNK         0.0815 
    110 H110       30.1982   34.6091    0.9889 H         1 UNK         0.2987 
    111 H111       27.4346   34.5366    1.8143 H         1 UNK         0.0949 
    112 H112       29.5746   36.7167    2.1093 H         1 UNK         0.0806 
    113 H113       28.4645   36.5366    0.7493 H         1 UNK         0.0806 
    114 H114       27.8469   36.9413    2.3410 H         1 UNK         0.0806 
    115 H115       30.3309   33.7655    3.4873 H         1 UNK         0.3010 
    116 H116       28.9235   33.4689    6.0257 H         1 UNK         0.0829 
    117 H117       30.0611   35.7134    6.2685 H         1 UNK         0.0813 
    118 H118       30.8288   34.5117    7.2927 H         1 UNK         0.0813 
    119 H119       31.5954   34.9937    5.7847 H         1 UNK         0.0813 
    120 H120       30.1532   31.9409    7.3792 H         1 UNK         0.3038 
    121 H121       31.0443   29.7127    5.8294 H         1 UNK         0.0769 
    122 H122       31.0478   28.5482    8.0105 H         1 UNK         0.0811 
    123 H123       29.5944   29.5119    7.8409 H         1 UNK         0.0811 
    124 H124       30.9154   30.0798    8.8642 H         1 UNK         0.0811 
    125 H125       32.9032   31.6993    5.3268 H         1 UNK         0.3204 
    126 H126       35.4057   31.3546    6.7348 H         1 UNK         0.0748 
    127 H127       36.3474   32.5355    4.7343 H         1 UNK         0.0771 
    128 H128       34.8091   32.3681    3.8971 H         1 UNK         0.0771 
    129 H129       34.9257   33.3639    5.3479 H         1 UNK         0.0771 
    130 H130       33.7468   29.5462    4.2678 H         1 UNK         0.2980 
    131 H131       35.9044   27.8356    3.4494 H         1 UNK         0.0545 
    132 H132       34.6619   26.2805    6.9499 H         1 UNK         0.3459 
    133 H133       34.2819   27.9311    6.5305 H         1 UNK         0.3459 
    134 H134       34.1163   28.0871    1.9047 H         1 UNK         0.0616 
    135 H135       34.0050   26.4500    2.4630 H         1 UNK         0.0616 
    136 H136       32.1831   25.7507    4.4653 H         1 UNK         0.0634 
    137 H137       30.5536   26.2813    4.1289 H         1 UNK         0.0634 
@<TRIPOS>BOND
     1    1    2 1    
     2    1   72 1    
     3    1   73 1    
     4    1   74 1    
     5    2    3 2    
     6    2    4 am   BACKBONE|DICT|INTERRES
     7    4    5 1    
     8    4   75 1    
     9    5    6 1    
    10    5   35 1    
    11    5   76 1    
    12    6    7 1    
    13    6   77 1    
    14    6   78 1    
    15    7    8 1    
    16    8    9 1    
    17    8   79 1    
    18    8   80 1    
    19    9   10 ar   
    20    9   14 ar   
    21   10   11 ar   
    22   10   81 1    
    23   11   12 ar   
    24   11   71 1    
    25   12   13 ar   
    26   12   82 1    
    27   13   14 ar   
    28   13   15 1    
    29   14   83 1    
    30   15   16 1    
    31   15   84 1    
    32   15   85 1    
    33   16   17 1    
    34   17   18 1    
    35   17   86 1    
    36   17   87 1    
    37   18   19 1    
    38   18   37 1    
    39   18   88 1    
    40   19   20 am   BACKBONE|DICT|INTERRES
    41   19   89 1    
    42   20   21 2    
    43   20   22 1    
    44   22   23 1    
    45   22   24 1    
    46   22   90 1    
    47   23   91 1    
    48   23   92 1    
    49   23   93 1    
    50   24   25 am   BACKBONE|DICT|INTERRES
    51   24   94 1    
    52   25   26 2    
    53   25   27 1    
    54   27   28 1    
    55   27   29 1    
    56   27   95 1    
    57   28   96 1    
    58   28   97 1    
    59   28   98 1    
    60   29   30 am   BACKBONE|DICT|INTERRES
    61   29   99 1    
    62   30   31 2    
    63   30   32 1    
    64   32   33 1    
    65   32   34 1    
    66   32  100 1    
    67   33  101 1    
    68   33  102 1    
    69   33  103 1    
    70   34   35 am   BACKBONE|DICT|INTERRES
    71   34  104 1    
    72   35   36 2    
    73   37   38 2    
    74   37   39 am   BACKBONE|DICT|INTERRES
    75   39   40 1    
    76   39  105 1    
    77   40   41 1    
    78   40   42 1    
    79   40  106 1    
    80   41  107 1    
    81   41  108 1    
    82   41  109 1    
    83   42   43 2    
    84   42   44 am   BACKBONE|DICT|INTERRES
    85   44   45 1    
    86   44  110 1    
    87   45   46 1    
    88   45   47 1    
    89   45  111 1    
    90   46  112 1    
    91   46  113 1    
    92   46  114 1    
    93   47   48 2    
    94   47   49 am   BACKBONE|DICT|INTERRES
    95   49   50 1    
    96   49  115 1    
    97   50   51 1    
    98   50   52 1    
    99   50  116 1    
   100   51  117 1    
   101   51  118 1    
   102   51  119 1    
   103   52   53 2    
   104   52   54 am   BACKBONE|DICT|INTERRES
   105   54   55 1    
   106   54  120 1    
   107   55   56 1    
   108   55   57 1    
   109   55  121 1    
   110   56  122 1    
   111   56  123 1    
   112   56  124 1    
   113   57   58 2    
   114   57   59 am   BACKBONE|DICT|INTERRES
   115   59   60 1    
   116   59  125 1    
   117   60   61 1    
   118   60   62 1    
   119   60  126 1    
   120   61  127 1    
   121   61  128 1    
   122   61  129 1    
   123   62   63 2    
   124   62   64 am   BACKBONE|DICT|INTERRES
   125   64   65 1    
   126   64  130 1    
   127   65   66 1    
   128   65   69 1    
   129   65  131 1    
   130   66   67 am   BACKBONE|DICT|INTERRES
   131   66   68 2    
   132   67  132 1    
   133   67  133 1    
   134   69   70 1    
   135   69  134 1    
   136   69  135 1    
   137   70   71 1    
   138   71  136 1    
   139   71  137 1    
@<TRIPOS>SUBSTRUCTURE
     1 UNK         1 GROUP             0       ****    0 ROOT    
