@<TRIPOS>MOLECULE
3R136
137   139    1
SMALL
USER_CHARGES


@<TRIPOS>ATOM
      1 CA         31.2890   27.1602   -3.6022 C.3       0 UNK        -0.1979 
      2 C          30.1658   26.6811   -2.6953 C.2       0 UNK         0.4864 
      3 O          29.0266   26.5481   -3.1462 O.2       0 UNK        -0.5359 
      4 N          30.4731   26.4182   -1.4183 N.am      1 UNK        -0.4318 
      5 CA         29.5278   25.9587   -0.3939 C.3       1 UNK         0.0824 
      6 C6         30.0231   26.2900    1.0365 C.3       12 UNK        -0.0944 
      7 S7         30.2757   28.0768    1.2879 S.3       12 UNK        -0.2672 
      8 C8         31.4141   28.0742    2.7011 C.3       12 UNK         0.0333 
      9 C9         30.7764   27.4838    3.9487 C.ar      12 UNK        -0.0807 
     10 C10        31.1919   26.2367    4.4271 C.ar      12 UNK        -0.0894 
     11 C11        30.6024   25.6860    5.5681 C.ar      12 UNK        -0.0804 
     12 C12        29.5876   26.3875    6.2248 C.ar      12 UNK        -0.0824 
     13 C13        29.1690   27.6371    5.7599 C.ar      12 UNK        -0.0762 
     14 C14        29.7774   28.1881    4.6287 C.ar      12 UNK        -0.0782 
     15 C15        28.0579   28.3801    6.4860 C.3       12 UNK         0.0230 
     16 S16        26.4213   27.9875    5.7854 S.3       12 UNK        -0.2608 
     17 C17        26.2821   29.2025    4.4313 C.3       12 UNK        -0.0989 
     18 CA         26.4496   28.5743    3.0234 C.3       5 UNK         0.0716 
     19 N          25.3997   27.6013    2.7211 N.am      5 UNK        -0.4135 
     20 C          25.4698   26.6722    1.7610 C.2       4 UNK         0.5031 
     21 O          26.4599   26.4904    1.0457 O.2       4 UNK        -0.5229 
     22 CA         24.1956   25.8443    1.5302 C.3       4 UNK         0.0329 
     23 CB         23.2133   26.6185    0.6353 C.3       4 UNK        -0.2001 
     24 N          24.5065   24.5660    0.8914 N.am      4 UNK        -0.4303 
     25 C          25.0264   23.5066    1.5254 C.2       3 UNK         0.5044 
     26 O          25.2095   23.4478    2.7417 O.2       3 UNK        -0.5152 
     27 CA         25.4391   22.3299    0.6376 C.3       3 UNK         0.0319 
     28 CB         24.2152   21.6407    0.0009 C.3       3 UNK        -0.2001 
     29 N          26.3753   22.8044   -0.3802 N.am      3 UNK        -0.4354 
     30 C          27.2050   22.0325   -1.0918 C.2       2 UNK         0.4964 
     31 O          27.2346   20.8034   -1.0161 O.2       2 UNK        -0.5047 
     32 CA         28.1735   22.7463   -2.0531 C.3       2 UNK         0.0288 
     33 CB         27.5967   22.7679   -3.4781 C.3       2 UNK        -0.2113 
     34 N          28.5169   24.1161   -1.6563 N.am      2 UNK        -0.4145 
     35 C          29.2260   24.4546   -0.5706 C.2       1 UNK         0.5006 
     36 O          29.6626   23.6333    0.2385 O.2       1 UNK        -0.5103 
     37 C          26.4808   29.6630    1.9311 C.2       5 UNK         0.5055 
     38 O          25.8461   30.7080    2.0858 O.2       5 UNK        -0.5220 
     39 N          27.2222   29.4006    0.8481 N.am      6 UNK        -0.4450 
     40 CA         27.5004   30.3559   -0.2308 C.3       6 UNK         0.0367 
     41 CB         28.0280   29.5885   -1.4542 C.3       6 UNK        -0.1929 
     42 C          28.4958   31.4619    0.1780 C.2       6 UNK         0.5070 
     43 O          28.6004   32.4644   -0.5283 O.2       6 UNK        -0.5237 
     44 N          29.2108   31.2488    1.2947 N.am      7 UNK        -0.4739 
     45 CA         30.2364   32.1105    1.8960 C.3       7 UNK         0.0276 
     46 CB         29.6394   33.4642    2.3363 C.3       7 UNK        -0.1927 
     47 C          31.4963   32.2584    1.0206 C.2       7 UNK         0.5013 
     48 O          32.1467   33.3043    1.0538 O.2       7 UNK        -0.5193 
     49 N          31.8274   31.1997    0.2655 N.am      8 UNK        -0.4253 
     50 CA         33.0202   31.1159   -0.5823 C.3       8 UNK         0.0242 
     51 CB         32.9111   29.8824   -1.4951 C.3       8 UNK        -0.2000 
     52 C          34.3221   31.0843    0.2386 C.2       8 UNK         0.4948 
     53 O          35.2599   31.8184   -0.0744 O.2       8 UNK        -0.5275 
     54 N          34.3317   30.2535    1.2868 N.am      9 UNK        -0.4246 
     55 CA         35.3961   30.1005    2.2740 C.3       9 UNK         0.0261 
     56 CB         36.6356   29.4197    1.6563 C.3       9 UNK        -0.1959 
     57 C          34.7999   29.2698    3.4132 C.2       9 UNK         0.5033 
     58 O          34.6787   28.0532    3.2622 O.2       9 UNK        -0.5390 
     59 N          34.3547   29.9413    4.4844 N.am      10 UNK        -0.4215 
     60 CA         33.6517   29.3384    5.6233 C.3       10 UNK         0.0240 
     61 CB         33.2338   30.4401    6.6102 C.3       10 UNK        -0.1982 
     62 C          34.4826   28.2556    6.3321 C.2       10 UNK         0.4970 
     63 O          35.6621   28.4839    6.6104 O.2       10 UNK        -0.4916 
     64 N          33.8494   27.1096    6.6107 N.am      11 UNK        -0.4279 
     65 CA         34.4900   25.9385    7.2276 C.3       11 UNK         0.1003 
     66 C          34.7787   26.0580    8.7542 C.2       11 UNK         0.5709 
     67 N          34.2885   27.0789    9.4479 N.am      11 UNK        -0.7358 
     68 O          35.4757   25.2153    9.3149 O.2       11 UNK        -0.4999 
     69 C69        33.7563   24.6236    6.8506 C.3       12 UNK        -0.0954 
     70 S70        32.0813   24.4531    7.5623 S.3       12 UNK        -0.2268 
     71 C71        31.0286   24.3201    6.0830 C.3       12 UNK         0.0203 
     72 H72        31.0650   28.1576   -3.9793 H         1 UNK         0.0888 
     73 H73        32.2455   27.2005   -3.0814 H         1 UNK         0.0888 
     74 H74        31.3948   26.4891   -4.4540 H         1 UNK         0.0888 
     75 H75        31.4269   26.5236   -1.1052 H         1 UNK         0.3017 
     76 H76        28.5842   26.4884   -0.5404 H         1 UNK         0.0873 
     77 H77        29.2990   25.9485    1.7795 H         1 UNK         0.0745 
     78 H78        30.9567   25.7661    1.2503 H         1 UNK         0.0745 
     79 H79        31.7293   29.0976    2.9058 H         1 UNK         0.0705 
     80 H80        32.3092   27.5176    2.4232 H         1 UNK         0.0705 
     81 H81        31.9685   25.6919    3.9072 H         1 UNK         0.1334 
     82 H82        29.1205   25.9557    7.0997 H         1 UNK         0.1417 
     83 H83        29.4613   29.1558    4.2657 H         1 UNK         0.1562 
     84 H84        28.2376   29.4559    6.4690 H         1 UNK         0.0748 
     85 H85        28.0570   28.0981    7.5401 H         1 UNK         0.0748 
     86 H86        27.0157   29.9960    4.5847 H         1 UNK         0.0940 
     87 H87        25.3074   29.6868    4.5195 H         1 UNK         0.0940 
     88 H88        27.4100   28.0540    3.0042 H         1 UNK         0.0703 
     89 H89        24.5455   27.6950    3.2508 H         1 UNK         0.3081 
     90 H90        23.7197   25.6514    2.4943 H         1 UNK         0.0719 
     91 H91        23.6492   26.8501   -0.3377 H         1 UNK         0.0809 
     92 H92        22.2980   26.0506    0.4666 H         1 UNK         0.0809 
     93 H93        22.9237   27.5647    1.0945 H         1 UNK         0.0809 
     94 H94        24.3920   24.5262   -0.1104 H         1 UNK         0.2990 
     95 H95        25.9556   21.6061    1.2721 H         1 UNK         0.0690 
     96 H96        24.5007   20.7306   -0.5267 H         1 UNK         0.0788 
     97 H97        23.7051   22.2903   -0.7109 H         1 UNK         0.0788 
     98 H98        23.4890   21.3543    0.7629 H         1 UNK         0.0788 
     99 H99        26.4660   23.8076   -0.4672 H         1 UNK         0.2993 
    100 H100       29.0981   22.1649   -2.0669 H         1 UNK         0.0949 
    101 H101       28.3093   23.1885   -4.1881 H         1 UNK         0.0767 
    102 H102       27.3582   21.7592   -3.8190 H         1 UNK         0.0767 
    103 H103       26.6801   23.3567   -3.5333 H         1 UNK         0.0767 
    104 H104       28.2821   24.8610   -2.3060 H         1 UNK         0.3013 
    105 H105       27.6495   28.4853    0.7733 H         1 UNK         0.3121 
    106 H106       26.5634   30.8431   -0.5086 H         1 UNK         0.0774 
    107 H107       28.1670   30.2581   -2.3040 H         1 UNK         0.0815 
    108 H108       28.9911   29.1198   -1.2527 H         1 UNK         0.0815 
    109 H109       27.3344   28.8082   -1.7682 H         1 UNK         0.0815 
    110 H110       29.0604   30.3641    1.7581 H         1 UNK         0.2987 
    111 H111       30.5685   31.5975    2.8000 H         1 UNK         0.0949 
    112 H112       29.3543   34.0792    1.4823 H         1 UNK         0.0806 
    113 H113       28.7560   33.3246    2.9594 H         1 UNK         0.0806 
    114 H114       30.3594   34.0378    2.9213 H         1 UNK         0.0806 
    115 H115       31.2196   30.3932    0.2862 H         1 UNK         0.3010 
    116 H116       33.0473   32.0066   -1.2141 H         1 UNK         0.0829 
    117 H117       32.0338   29.9449   -2.1394 H         1 UNK         0.0813 
    118 H118       33.7834   29.8002   -2.1450 H         1 UNK         0.0813 
    119 H119       32.8413   28.9561   -0.9235 H         1 UNK         0.0813 
    120 H120       33.5165   29.6807    1.4510 H         1 UNK         0.3038 
    121 H121       35.6809   31.0846    2.6520 H         1 UNK         0.0769 
    122 H122       37.3909   29.2233    2.4183 H         1 UNK         0.0811 
    123 H123       37.1013   30.0468    0.8964 H         1 UNK         0.0811 
    124 H124       36.3836   28.4653    1.1922 H         1 UNK         0.0811 
    125 H125       34.5069   30.9386    4.5289 H         1 UNK         0.3204 
    126 H126       32.7444   28.8766    5.2358 H         1 UNK         0.0748 
    127 H127       32.6794   30.0215    7.4513 H         1 UNK         0.0771 
    128 H128       34.0985   30.9654    7.0182 H         1 UNK         0.0771 
    129 H129       32.5858   31.1762    6.1338 H         1 UNK         0.0771 
    130 H130       32.8735   27.0019    6.3739 H         1 UNK         0.2980 
    131 H131       35.4795   25.8608    6.7725 H         1 UNK         0.0545 
    132 H132       34.4882   27.1474   10.4333 H         1 UNK         0.3459 
    133 H133       33.7160   27.7736    8.9977 H         1 UNK         0.3459 
    134 H134       33.7020   24.5394    5.7644 H         1 UNK         0.0616 
    135 H135       34.3434   23.7631    7.1763 H         1 UNK         0.0616 
    136 H136       31.5373   23.7460    5.3071 H         1 UNK         0.0634 
    137 H137       30.1384   23.7460    6.3442 H         1 UNK         0.0634 
@<TRIPOS>BOND
     1    1    2 1    
     2    1   72 1    
     3    1   73 1    
     4    1   74 1    
     5    2    3 2    
     6    2    4 am   BACKBONE|DICT|INTERRES
     7    4    5 1    
     8    4   75 1    
     9    5    6 1    
    10    5   35 1    
    11    5   76 1    
    12    6    7 1    
    13    6   77 1    
    14    6   78 1    
    15    7    8 1    
    16    8    9 1    
    17    8   79 1    
    18    8   80 1    
    19    9   10 ar   
    20    9   14 ar   
    21   10   11 ar   
    22   10   81 1    
    23   11   12 ar   
    24   11   71 1    
    25   12   13 ar   
    26   12   82 1    
    27   13   14 ar   
    28   13   15 1    
    29   14   83 1    
    30   15   16 1    
    31   15   84 1    
    32   15   85 1    
    33   16   17 1    
    34   17   18 1    
    35   17   86 1    
    36   17   87 1    
    37   18   19 1    
    38   18   37 1    
    39   18   88 1    
    40   19   20 am   BACKBONE|DICT|INTERRES
    41   19   89 1    
    42   20   21 2    
    43   20   22 1    
    44   22   23 1    
    45   22   24 1    
    46   22   90 1    
    47   23   91 1    
    48   23   92 1    
    49   23   93 1    
    50   24   25 am   BACKBONE|DICT|INTERRES
    51   24   94 1    
    52   25   26 2    
    53   25   27 1    
    54   27   28 1    
    55   27   29 1    
    56   27   95 1    
    57   28   96 1    
    58   28   97 1    
    59   28   98 1    
    60   29   30 am   BACKBONE|DICT|INTERRES
    61   29   99 1    
    62   30   31 2    
    63   30   32 1    
    64   32   33 1    
    65   32   34 1    
    66   32  100 1    
    67   33  101 1    
    68   33  102 1    
    69   33  103 1    
    70   34   35 am   BACKBONE|DICT|INTERRES
    71   34  104 1    
    72   35   36 2    
    73   37   38 2    
    74   37   39 am   BACKBONE|DICT|INTERRES
    75   39   40 1    
    76   39  105 1    
    77   40   41 1    
    78   40   42 1    
    79   40  106 1    
    80   41  107 1    
    81   41  108 1    
    82   41  109 1    
    83   42   43 2    
    84   42   44 am   BACKBONE|DICT|INTERRES
    85   44   45 1    
    86   44  110 1    
    87   45   46 1    
    88   45   47 1    
    89   45  111 1    
    90   46  112 1    
    91   46  113 1    
    92   46  114 1    
    93   47   48 2    
    94   47   49 am   BACKBONE|DICT|INTERRES
    95   49   50 1    
    96   49  115 1    
    97   50   51 1    
    98   50   52 1    
    99   50  116 1    
   100   51  117 1    
   101   51  118 1    
   102   51  119 1    
   103   52   53 2    
   104   52   54 am   BACKBONE|DICT|INTERRES
   105   54   55 1    
   106   54  120 1    
   107   55   56 1    
   108   55   57 1    
   109   55  121 1    
   110   56  122 1    
   111   56  123 1    
   112   56  124 1    
   113   57   58 2    
   114   57   59 am   BACKBONE|DICT|INTERRES
   115   59   60 1    
   116   59  125 1    
   117   60   61 1    
   118   60   62 1    
   119   60  126 1    
   120   61  127 1    
   121   61  128 1    
   122   61  129 1    
   123   62   63 2    
   124   62   64 am   BACKBONE|DICT|INTERRES
   125   64   65 1    
   126   64  130 1    
   127   65   66 1    
   128   65   69 1    
   129   65  131 1    
   130   66   67 am   BACKBONE|DICT|INTERRES
   131   66   68 2    
   132   67  132 1    
   133   67  133 1    
   134   69   70 1    
   135   69  134 1    
   136   69  135 1    
   137   70   71 1    
   138   71  136 1    
   139   71  137 1    
@<TRIPOS>SUBSTRUCTURE
     1 UNK         1 GROUP             0       ****    0 ROOT    
