@<TRIPOS>MOLECULE
3R136
137   139    1
SMALL
USER_CHARGES


@<TRIPOS>ATOM
      1 CA         27.0348   20.9037    2.0706 C.3       0 UNK        -0.1979 
      2 C          28.1576   21.7023    2.7293 C.2       0 UNK         0.4864 
      3 O          27.9378   22.2656    3.7987 O.2       0 UNK        -0.5359 
      4 N          29.3669   21.7766    2.1505 N.am      1 UNK        -0.4318 
      5 CA         29.7992   21.1552    0.8862 C.3       1 UNK         0.0824 
      6 C6         31.3368   21.2072    0.6977 C.3       12 UNK        -0.0944 
      7 S7         32.2557   20.6445    2.1737 S.3       12 UNK        -0.2672 
      8 C8         33.6534   21.8140    2.2375 C.3       12 UNK         0.0333 
      9 C9         33.2157   23.2695    2.3559 C.ar      12 UNK        -0.0807 
     10 C10        33.4303   24.1522    1.2903 C.ar      12 UNK        -0.0894 
     11 C11        33.0618   25.4958    1.3964 C.ar      12 UNK        -0.0804 
     12 C12        32.4877   25.9559    2.5829 C.ar      12 UNK        -0.0824 
     13 C13        32.2404   25.0825    3.6419 C.ar      12 UNK        -0.0762 
     14 C14        32.6158   23.7397    3.5303 C.ar      12 UNK        -0.0782 
     15 C15        31.5702   25.6107    4.8997 C.3       12 UNK         0.0230 
     16 S16        29.8098   25.1567    5.0019 S.3       12 UNK        -0.2608 
     17 C17        29.1042   25.7696    3.4273 C.3       12 UNK        -0.0989 
     18 CA         29.0209   27.3102    3.2491 C.3       5 UNK         0.0716 
     19 N          28.5443   27.6516    1.8991 N.am      5 UNK        -0.4135 
     20 C          28.4563   28.8956    1.3967 C.2       4 UNK         0.5031 
     21 O          28.8513   29.8944    1.9941 O.2       4 UNK        -0.5229 
     22 CA         27.7389   29.1022    0.0466 C.3       4 UNK         0.0329 
     23 CB         28.7376   29.4099   -1.0781 C.3       4 UNK        -0.2001 
     24 N          26.8775   27.9939   -0.3656 N.am      4 UNK        -0.4303 
     25 C          25.7938   27.5641    0.2955 C.2       3 UNK         0.5044 
     26 O          25.3701   28.0861    1.3271 O.2       3 UNK        -0.5152 
     27 CA         25.1147   26.2929   -0.2500 C.3       3 UNK         0.0319 
     28 CB         23.9819   26.6641   -1.2197 C.3       3 UNK        -0.2001 
     29 N          26.0333   25.3489   -0.9072 N.am      3 UNK        -0.4354 
     30 C          27.1199   24.8154   -0.3315 C.2       2 UNK         0.4964 
     31 O          27.5013   25.1047    0.8059 O.2       2 UNK        -0.5047 
     32 CA         27.9474   23.8345   -1.1679 C.3       2 UNK         0.0288 
     33 CB         28.8776   24.5845   -2.1378 C.3       2 UNK        -0.2113 
     34 N          28.7459   23.0567   -0.2311 N.am      2 UNK        -0.4145 
     35 C          29.1029   21.7745   -0.3442 C.2       1 UNK         0.5006 
     36 O          28.8848   21.0825   -1.3395 O.2       1 UNK        -0.5103 
     37 C          28.1782   27.9882    4.3563 C.2       5 UNK         0.5055 
     38 O          28.7226   28.3485    5.4013 O.2       5 UNK        -0.5220 
     39 N          26.8756   28.1919    4.0995 N.am      6 UNK        -0.4450 
     40 CA         25.9737   28.9267    4.9884 C.3       6 UNK         0.0367 
     41 CB         24.5192   28.5653    4.6472 C.3       6 UNK        -0.1929 
     42 C          26.1773   30.4524    4.9276 C.2       6 UNK         0.5070 
     43 O          25.7975   31.1396    5.8763 O.2       6 UNK        -0.5237 
     44 N          26.7505   30.9617    3.8275 N.am      7 UNK        -0.4739 
     45 CA         27.0429   32.3819    3.6324 C.3       7 UNK         0.0276 
     46 CB         26.9773   32.7313    2.1357 C.3       7 UNK        -0.1927 
     47 C          28.4061   32.7627    4.2275 C.2       7 UNK         0.5013 
     48 O          28.4995   33.7989    4.8874 O.2       7 UNK        -0.5193 
     49 N          29.4302   31.9289    4.0024 N.am      8 UNK        -0.4253 
     50 CA         30.7829   32.1235    4.5173 C.3       8 UNK         0.0242 
     51 CB         31.5590   33.0895    3.6041 C.3       8 UNK        -0.2000 
     52 C          31.4993   30.7745    4.6070 C.2       8 UNK         0.4948 
     53 O          31.3449   29.9396    3.7153 O.2       8 UNK        -0.5275 
     54 N          32.3360   30.6125    5.6407 N.am      9 UNK        -0.4246 
     55 CA         33.0883   29.3869    5.9434 C.3       9 UNK         0.0261 
     56 CB         33.8437   29.5768    7.2692 C.3       9 UNK        -0.1959 
     57 C          34.0579   28.9168    4.8397 C.2       9 UNK         0.5033 
     58 O          34.4143   27.7391    4.8232 O.2       9 UNK        -0.5390 
     59 N          34.4617   29.8330    3.9510 N.am      10 UNK        -0.4215 
     60 CA         35.3222   29.5770    2.7946 C.3       10 UNK         0.0240 
     61 CB         36.5622   30.4859    2.8961 C.3       10 UNK        -0.1982 
     62 C          34.5827   29.7769    1.4564 C.2       10 UNK         0.4970 
     63 O          35.2506   29.8813    0.4272 O.2       10 UNK        -0.4916 
     64 N          33.2410   29.8418    1.4747 N.am      11 UNK        -0.4279 
     65 CA         32.3627   30.0846    0.3113 C.3       11 UNK         0.1003 
     66 C          32.4708   31.5111   -0.3135 C.2       11 UNK         0.5709 
     67 N          33.1961   32.4526    0.2787 N.am      11 UNK        -0.7358 
     68 O          31.8518   31.7873   -1.3383 O.2       11 UNK        -0.4999 
     69 C69        32.4315   28.9596   -0.7691 C.3       12 UNK        -0.0954 
     70 S70        31.7722   27.3699   -0.1732 S.3       12 UNK        -0.2268 
     71 C71        33.2947   26.4624    0.2454 C.3       12 UNK         0.0203 
     72 H72        27.3804   19.9372    1.7071 H         1 UNK         0.0888 
     73 H73        26.2376   20.7118    2.7886 H         1 UNK         0.0888 
     74 H74        26.6031   21.4613    1.2401 H         1 UNK         0.0888 
     75 H75        30.0935   22.2837    2.6360 H         1 UNK         0.3017 
     76 H76        29.5176   20.1015    0.9231 H         1 UNK         0.0873 
     77 H77        31.6351   20.5773   -0.1427 H         1 UNK         0.0745 
     78 H78        31.6492   22.2182    0.4356 H         1 UNK         0.0745 
     79 H79        34.2824   21.5614    3.0923 H         1 UNK         0.0705 
     80 H80        34.2735   21.6671    1.3517 H         1 UNK         0.0705 
     81 H81        33.8887   23.7935    0.3788 H         1 UNK         0.1334 
     82 H82        32.2157   26.9988    2.6730 H         1 UNK         0.1417 
     83 H83        32.4372   23.0610    4.3535 H         1 UNK         0.1562 
     84 H84        31.6517   26.6965    4.9483 H         1 UNK         0.0748 
     85 H85        32.0898   25.2275    5.7788 H         1 UNK         0.0748 
     86 H86        28.1056   25.3365    3.3447 H         1 UNK         0.0940 
     87 H87        29.6736   25.3318    2.6064 H         1 UNK         0.0940 
     88 H88        30.0308   27.7127    3.3300 H         1 UNK         0.0703 
     89 H89        28.1782   26.8764    1.3549 H         1 UNK         0.3081 
     90 H90        27.0982   29.9780    0.1698 H         1 UNK         0.0719 
     91 H91        29.3501   28.5425   -1.3219 H         1 UNK         0.0809 
     92 H92        28.2243   29.7211   -1.9880 H         1 UNK         0.0809 
     93 H93        29.4087   30.2222   -0.7970 H         1 UNK         0.0809 
     94 H94        27.1522   27.4913   -1.1967 H         1 UNK         0.2990 
     95 H95        24.6754   25.7741    0.6047 H         1 UNK         0.0690 
     96 H96        23.4191   25.7834   -1.5297 H         1 UNK         0.0788 
     97 H97        24.3618   27.1546   -2.1169 H         1 UNK         0.0788 
     98 H98        23.2740   27.3483   -0.7491 H         1 UNK         0.0788 
     99 H99        25.7968   25.0731   -1.8500 H         1 UNK         0.2993 
    100 H100       27.2714   23.1773   -1.7194 H         1 UNK         0.0949 
    101 H101       28.3070   25.1748   -2.8555 H         1 UNK         0.0767 
    102 H102       29.5466   25.2657   -1.6091 H         1 UNK         0.0767 
    103 H103       29.4944   23.8900   -2.7087 H         1 UNK         0.0767 
    104 H104       28.9038   23.5303    0.6506 H         1 UNK         0.3013 
    105 H105       26.4940   27.9055    3.2048 H         1 UNK         0.3121 
    106 H106       26.1674   28.6102    6.0158 H         1 UNK         0.0774 
    107 H107       23.8266   29.0470    5.3387 H         1 UNK         0.0815 
    108 H108       24.2480   28.8869    3.6410 H         1 UNK         0.0815 
    109 H109       24.3488   27.4908    4.7147 H         1 UNK         0.0815 
    110 H110       27.1075   30.3283    3.1237 H         1 UNK         0.2987 
    111 H111       26.2801   32.9754    4.1419 H         1 UNK         0.0949 
    112 H112       27.7479   32.2206    1.5585 H         1 UNK         0.0806 
    113 H113       26.0091   32.4691    1.7090 H         1 UNK         0.0806 
    114 H114       27.1189   33.8020    1.9835 H         1 UNK         0.0806 
    115 H115       29.2940   31.0930    3.4342 H         1 UNK         0.3010 
    116 H116       30.7221   32.5473    5.5223 H         1 UNK         0.0829 
    117 H117       31.5875   32.7261    2.5768 H         1 UNK         0.0813 
    118 H118       32.5888   33.2142    3.9408 H         1 UNK         0.0813 
    119 H119       31.1021   34.0791    3.5931 H         1 UNK         0.0813 
    120 H120       32.4265   31.3647    6.3092 H         1 UNK         0.3038 
    121 H121       32.3549   28.5917    6.0853 H         1 UNK         0.0769 
    122 H122       34.5719   30.3866    7.2067 H         1 UNK         0.0811 
    123 H123       33.1605   29.7994    8.0890 H         1 UNK         0.0811 
    124 H124       34.3873   28.6711    7.5425 H         1 UNK         0.0811 
    125 H125       34.1184   30.7762    4.0605 H         1 UNK         0.3204 
    126 H126       35.6643   28.5400    2.8005 H         1 UNK         0.0748 
    127 H127       37.2709   30.2802    2.0927 H         1 UNK         0.0771 
    128 H128       36.2960   31.5419    2.8355 H         1 UNK         0.0771 
    129 H129       37.0917   30.3274    3.8360 H         1 UNK         0.0771 
    130 H130       32.7467   29.7508    2.3577 H         1 UNK         0.2980 
    131 H131       31.3559   30.0661    0.7288 H         1 UNK         0.0545 
    132 H132       33.2412   33.3697   -0.1361 H         1 UNK         0.3459 
    133 H133       33.7235   32.2470    1.1098 H         1 UNK         0.3459 
    134 H134       33.4452   28.8281   -1.1485 H         1 UNK         0.0616 
    135 H135       31.8275   29.2228   -1.6386 H         1 UNK         0.0616 
    136 H136       34.0849   27.1536    0.5331 H         1 UNK         0.0634 
    137 H137       33.6463   25.9397   -0.6451 H         1 UNK         0.0634 
@<TRIPOS>BOND
     1    1    2 1    
     2    1   72 1    
     3    1   73 1    
     4    1   74 1    
     5    2    3 2    
     6    2    4 am   BACKBONE|DICT|INTERRES
     7    4    5 1    
     8    4   75 1    
     9    5    6 1    
    10    5   35 1    
    11    5   76 1    
    12    6    7 1    
    13    6   77 1    
    14    6   78 1    
    15    7    8 1    
    16    8    9 1    
    17    8   79 1    
    18    8   80 1    
    19    9   10 ar   
    20    9   14 ar   
    21   10   11 ar   
    22   10   81 1    
    23   11   12 ar   
    24   11   71 1    
    25   12   13 ar   
    26   12   82 1    
    27   13   14 ar   
    28   13   15 1    
    29   14   83 1    
    30   15   16 1    
    31   15   84 1    
    32   15   85 1    
    33   16   17 1    
    34   17   18 1    
    35   17   86 1    
    36   17   87 1    
    37   18   19 1    
    38   18   37 1    
    39   18   88 1    
    40   19   20 am   BACKBONE|DICT|INTERRES
    41   19   89 1    
    42   20   21 2    
    43   20   22 1    
    44   22   23 1    
    45   22   24 1    
    46   22   90 1    
    47   23   91 1    
    48   23   92 1    
    49   23   93 1    
    50   24   25 am   BACKBONE|DICT|INTERRES
    51   24   94 1    
    52   25   26 2    
    53   25   27 1    
    54   27   28 1    
    55   27   29 1    
    56   27   95 1    
    57   28   96 1    
    58   28   97 1    
    59   28   98 1    
    60   29   30 am   BACKBONE|DICT|INTERRES
    61   29   99 1    
    62   30   31 2    
    63   30   32 1    
    64   32   33 1    
    65   32   34 1    
    66   32  100 1    
    67   33  101 1    
    68   33  102 1    
    69   33  103 1    
    70   34   35 am   BACKBONE|DICT|INTERRES
    71   34  104 1    
    72   35   36 2    
    73   37   38 2    
    74   37   39 am   BACKBONE|DICT|INTERRES
    75   39   40 1    
    76   39  105 1    
    77   40   41 1    
    78   40   42 1    
    79   40  106 1    
    80   41  107 1    
    81   41  108 1    
    82   41  109 1    
    83   42   43 2    
    84   42   44 am   BACKBONE|DICT|INTERRES
    85   44   45 1    
    86   44  110 1    
    87   45   46 1    
    88   45   47 1    
    89   45  111 1    
    90   46  112 1    
    91   46  113 1    
    92   46  114 1    
    93   47   48 2    
    94   47   49 am   BACKBONE|DICT|INTERRES
    95   49   50 1    
    96   49  115 1    
    97   50   51 1    
    98   50   52 1    
    99   50  116 1    
   100   51  117 1    
   101   51  118 1    
   102   51  119 1    
   103   52   53 2    
   104   52   54 am   BACKBONE|DICT|INTERRES
   105   54   55 1    
   106   54  120 1    
   107   55   56 1    
   108   55   57 1    
   109   55  121 1    
   110   56  122 1    
   111   56  123 1    
   112   56  124 1    
   113   57   58 2    
   114   57   59 am   BACKBONE|DICT|INTERRES
   115   59   60 1    
   116   59  125 1    
   117   60   61 1    
   118   60   62 1    
   119   60  126 1    
   120   61  127 1    
   121   61  128 1    
   122   61  129 1    
   123   62   63 2    
   124   62   64 am   BACKBONE|DICT|INTERRES
   125   64   65 1    
   126   64  130 1    
   127   65   66 1    
   128   65   69 1    
   129   65  131 1    
   130   66   67 am   BACKBONE|DICT|INTERRES
   131   66   68 2    
   132   67  132 1    
   133   67  133 1    
   134   69   70 1    
   135   69  134 1    
   136   69  135 1    
   137   70   71 1    
   138   71  136 1    
   139   71  137 1    
@<TRIPOS>SUBSTRUCTURE
     1 UNK         1 GROUP             0       ****    0 ROOT    
