@<TRIPOS>MOLECULE
3R136
137   139    1
SMALL
USER_CHARGES


@<TRIPOS>ATOM
      1 CA         31.0985   24.4432   -4.6721 C.3       0 UNK        -0.1979 
      2 C          30.1120   25.0911   -3.7117 C.2       0 UNK         0.4864 
      3 O          29.2967   25.9108   -4.1358 O.2       0 UNK        -0.5359 
      4 N          30.1870   24.7327   -2.4232 N.am      1 UNK        -0.4318 
      5 CA         29.2984   25.2068   -1.3562 C.3       1 UNK         0.0824 
      6 C6         29.8412   24.8509    0.0558 C.3       12 UNK        -0.0944 
      7 S7         30.2329   23.0737    0.2608 S.3       12 UNK        -0.2672 
      8 C8         31.7113   23.1170    1.3276 C.3       12 UNK         0.0333 
      9 C9         31.4461   23.4355    2.7997 C.ar      12 UNK        -0.0807 
     10 C10        32.5010   23.9291    3.5731 C.ar      12 UNK        -0.0894 
     11 C11        32.3302   24.1939    4.9346 C.ar      12 UNK        -0.0804 
     12 C12        31.0847   23.9704    5.5272 C.ar      12 UNK        -0.0824 
     13 C13        30.0200   23.4675    4.7733 C.ar      12 UNK        -0.0762 
     14 C14        30.2082   23.1967    3.4139 C.ar      12 UNK        -0.0782 
     15 C15        28.6826   23.1711    5.4418 C.3       12 UNK         0.0230 
     16 S16        27.3036   24.1367    4.7444 S.3       12 UNK        -0.2608 
     17 C17        27.8027   25.8524    5.1193 C.3       12 UNK        -0.0989 
     18 CA         28.0435   26.6727    3.8291 C.3       5 UNK         0.0716 
     19 N          26.8355   26.7264    2.9885 N.am      5 UNK        -0.4135 
     20 C          26.7765   27.2240    1.7476 C.2       4 UNK         0.5031 
     21 O          27.7574   27.6629    1.1474 O.2       4 UNK        -0.5229 
     22 CA         25.3835   27.2798    1.1047 C.3       4 UNK         0.0329 
     23 CB         25.3328   28.2277   -0.1087 C.3       4 UNK        -0.2001 
     24 N          24.9532   25.9440    0.6978 N.am      4 UNK        -0.4303 
     25 C          24.2794   25.0883    1.4797 C.2       3 UNK         0.5044 
     26 O          23.9934   25.3336    2.6527 O.2       3 UNK        -0.5152 
     27 CA         23.8192   23.7513    0.8651 C.3       3 UNK         0.0319 
     28 CB         22.3094   23.7902    0.5758 C.3       3 UNK        -0.2001 
     29 N          24.5278   23.4097   -0.3704 N.am      3 UNK        -0.4354 
     30 C          25.7294   22.8212   -0.4116 C.2       2 UNK         0.4964 
     31 O          26.3270   22.4209    0.5883 O.2       2 UNK        -0.5047 
     32 CA         26.4077   22.6792   -1.7902 C.3       2 UNK         0.0288 
     33 CB         25.5224   23.0829   -2.9929 C.3       2 UNK        -0.2113 
     34 N          27.6780   23.4130   -1.8040 N.am      2 UNK        -0.4145 
     35 C          27.8458   24.7195   -1.5414 C.2       1 UNK         0.5006 
     36 O          26.9156   25.5187   -1.4319 O.2       1 UNK        -0.5103 
     37 C          28.6169   28.0711    4.1683 C.2       5 UNK         0.5055 
     38 O          29.7739   28.1667    4.5752 O.2       5 UNK        -0.5220 
     39 N          27.8104   29.1279    3.9828 N.am      6 UNK        -0.4450 
     40 CA         28.2013   30.5348    4.0817 C.3       6 UNK         0.0367 
     41 CB         26.9318   31.4006    4.1257 C.3       6 UNK        -0.1929 
     42 C          29.1297   31.0104    2.9445 C.2       6 UNK         0.5070 
     43 O          29.7466   32.0677    3.0936 O.2       6 UNK        -0.5237 
     44 N          29.2188   30.2546    1.8372 N.am      7 UNK        -0.4739 
     45 CA         30.0836   30.5448    0.6873 C.3       7 UNK         0.0276 
     46 CB         29.8723   29.4705   -0.3918 C.3       7 UNK        -0.1927 
     47 C          31.5725   30.6268    1.0673 C.2       7 UNK         0.5013 
     48 O          32.0050   29.9403    1.9953 O.2       7 UNK        -0.5193 
     49 N          32.3199   31.4706    0.3402 N.am      8 UNK        -0.4253 
     50 CA         33.7373   31.7952    0.5583 C.3       8 UNK         0.0242 
     51 CB         34.6367   30.5842    0.2281 C.3       8 UNK        -0.2000 
     52 C          34.0002   32.3817    1.9611 C.2       8 UNK         0.4948 
     53 O          34.9581   31.9832    2.6267 O.2       8 UNK        -0.5275 
     54 N          33.1190   33.3058    2.3804 N.am      9 UNK        -0.4246 
     55 CA         33.0985   33.9944    3.6780 C.3       9 UNK         0.0261 
     56 CB         34.2768   34.9868    3.7818 C.3       9 UNK        -0.1959 
     57 C          33.0357   33.0069    4.8592 C.2       9 UNK         0.5033 
     58 O          33.8734   33.0709    5.7614 O.2       9 UNK        -0.5390 
     59 N          32.0511   32.0977    4.8017 N.am      10 UNK        -0.4215 
     60 CA         31.8526   30.9496    5.6915 C.3       10 UNK         0.0240 
     61 CB         31.4754   31.4038    7.1180 C.3       10 UNK        -0.1982 
     62 C          33.0436   29.9760    5.6444 C.2       10 UNK         0.4970 
     63 O          33.6696   29.7219    6.6757 O.2       10 UNK        -0.4916 
     64 N          33.3194   29.4708    4.4333 N.am      11 UNK        -0.4279 
     65 CA         34.3603   28.4962    4.0740 C.3       11 UNK         0.1003 
     66 C          35.7963   28.8302    4.5739 C.2       11 UNK         0.5709 
     67 N          36.2369   30.0750    4.4382 N.am      11 UNK        -0.7358 
     68 O          36.5285   27.9685    5.0562 O.2       11 UNK        -0.4999 
     69 C69        33.9043   27.0177    4.2503 C.3       12 UNK        -0.0954 
     70 S70        33.5029   26.4944    5.9523 S.3       12 UNK        -0.2268 
     71 C71        33.5015   24.6859    5.7734 C.3       12 UNK         0.0203 
     72 H72        31.7644   23.7456   -4.1644 H         1 UNK         0.0888 
     73 H73        30.5626   23.8966   -5.4476 H         1 UNK         0.0888 
     74 H74        31.7100   25.2061   -5.1531 H         1 UNK         0.0888 
     75 H75        30.8787   24.0550   -2.1345 H         1 UNK         0.3017 
     76 H76        29.2657   26.2969   -1.4238 H         1 UNK         0.0873 
     77 H77        29.1325   25.1463    0.8324 H         1 UNK         0.0745 
     78 H78        30.7419   25.4358    0.2478 H         1 UNK         0.0745 
     79 H79        32.4247   23.8292    0.9097 H         1 UNK         0.0705 
     80 H80        32.1913   22.1389    1.2775 H         1 UNK         0.0705 
     81 H81        33.4674   24.0952    3.1166 H         1 UNK         0.1334 
     82 H82        30.9533   24.1720    6.5817 H         1 UNK         0.1417 
     83 H83        29.3831   22.7909    2.8451 H         1 UNK         0.1562 
     84 H84        28.7328   23.3546    6.5163 H         1 UNK         0.0748 
     85 H85        28.4592   22.1097    5.3252 H         1 UNK         0.0748 
     86 H86        28.7013   25.8393    5.7395 H         1 UNK         0.0940 
     87 H87        27.0235   26.3129    5.7295 H         1 UNK         0.0940 
     88 H88        28.8153   26.1629    3.2475 H         1 UNK         0.0703 
     89 H89        25.9929   26.3315    3.3873 H         1 UNK         0.3081 
     90 H90        24.6903   27.6772    1.8494 H         1 UNK         0.0719 
     91 H91        26.0080   27.9122   -0.9044 H         1 UNK         0.0809 
     92 H92        24.3275   28.2837   -0.5261 H         1 UNK         0.0809 
     93 H93        25.6226   29.2398    0.1768 H         1 UNK         0.0809 
     94 H94        25.2728   25.6402   -0.2161 H         1 UNK         0.2990 
     95 H95        23.9998   22.9718    1.6086 H         1 UNK         0.0690 
     96 H96        21.9528   22.8314    0.1988 H         1 UNK         0.0788 
     97 H97        22.0575   24.5560   -0.1590 H         1 UNK         0.0788 
     98 H98        21.7436   24.0101    1.4824 H         1 UNK         0.0788 
     99 H99        24.1115   23.7165   -1.2382 H         1 UNK         0.2993 
    100 H100       26.6547   21.6220   -1.8993 H         1 UNK         0.0949 
    101 H101       26.0474   22.9122   -3.9330 H         1 UNK         0.0767 
    102 H102       24.6092   22.4873   -3.0280 H         1 UNK         0.0767 
    103 H103       25.2355   24.1346   -2.9687 H         1 UNK         0.0767 
    104 H104       28.5110   22.8414   -1.8305 H         1 UNK         0.3013 
    105 H105       26.8695   28.9476    3.6666 H         1 UNK         0.3121 
    106 H106       28.7342   30.6723    5.0238 H         1 UNK         0.0774 
    107 H107       27.1836   32.4560    4.2397 H         1 UNK         0.0815 
    108 H108       26.3442   31.3039    3.2118 H         1 UNK         0.0815 
    109 H109       26.2943   31.1305    4.9677 H         1 UNK         0.0815 
    110 H110       28.7025   29.3823    1.7930 H         1 UNK         0.2987 
    111 H111       29.7743   31.5119    0.2857 H         1 UNK         0.0949 
    112 H112       30.4777   29.6728   -1.2763 H         1 UNK         0.0806 
    113 H113       30.1473   28.4793   -0.0280 H         1 UNK         0.0806 
    114 H114       28.8318   29.4299   -0.7149 H         1 UNK         0.0806 
    115 H115       31.8703   31.9784   -0.4098 H         1 UNK         0.3010 
    116 H116       33.9868   32.5879   -0.1488 H         1 UNK         0.0829 
    117 H117       34.4624   30.2270   -0.7867 H         1 UNK         0.0813 
    118 H118       35.6922   30.8492    0.3006 H         1 UNK         0.0813 
    119 H119       34.4644   29.7515    0.9090 H         1 UNK         0.0813 
    120 H120       32.3533   33.5312    1.7606 H         1 UNK         0.3038 
    121 H121       32.1742   34.5737    3.7112 H         1 UNK         0.0769 
    122 H122       34.2194   35.5653    4.7046 H         1 UNK         0.0811 
    123 H123       34.2725   35.6961    2.9543 H         1 UNK         0.0811 
    124 H124       35.2395   34.4743    3.7792 H         1 UNK         0.0811 
    125 H125       31.3947   32.1527    4.0248 H         1 UNK         0.3204 
    126 H126       31.0044   30.3959    5.2934 H         1 UNK         0.0748 
    127 H127       31.2386   30.5448    7.7470 H         1 UNK         0.0771 
    128 H128       32.2875   31.9462    7.6028 H         1 UNK         0.0771 
    129 H129       30.5981   32.0503    7.1080 H         1 UNK         0.0771 
    130 H130       32.7457   29.7618    3.6436 H         1 UNK         0.2980 
    131 H131       34.4539   28.6199    2.9953 H         1 UNK         0.0545 
    132 H132       35.6707   30.7767    3.9680 H         1 UNK         0.3459 
    133 H133       37.1646   30.3077    4.7525 H         1 UNK         0.3459 
    134 H134       33.0129   26.8506    3.6434 H         1 UNK         0.0616 
    135 H135       34.6640   26.3464    3.8469 H         1 UNK         0.0616 
    136 H136       34.4493   24.3620    5.3407 H         1 UNK         0.0634 
    137 H137       33.4539   24.2373    6.7668 H         1 UNK         0.0634 
@<TRIPOS>BOND
     1    1    2 1    
     2    1   72 1    
     3    1   73 1    
     4    1   74 1    
     5    2    3 2    
     6    2    4 am   BACKBONE|DICT|INTERRES
     7    4    5 1    
     8    4   75 1    
     9    5    6 1    
    10    5   35 1    
    11    5   76 1    
    12    6    7 1    
    13    6   77 1    
    14    6   78 1    
    15    7    8 1    
    16    8    9 1    
    17    8   79 1    
    18    8   80 1    
    19    9   10 ar   
    20    9   14 ar   
    21   10   11 ar   
    22   10   81 1    
    23   11   12 ar   
    24   11   71 1    
    25   12   13 ar   
    26   12   82 1    
    27   13   14 ar   
    28   13   15 1    
    29   14   83 1    
    30   15   16 1    
    31   15   84 1    
    32   15   85 1    
    33   16   17 1    
    34   17   18 1    
    35   17   86 1    
    36   17   87 1    
    37   18   19 1    
    38   18   37 1    
    39   18   88 1    
    40   19   20 am   BACKBONE|DICT|INTERRES
    41   19   89 1    
    42   20   21 2    
    43   20   22 1    
    44   22   23 1    
    45   22   24 1    
    46   22   90 1    
    47   23   91 1    
    48   23   92 1    
    49   23   93 1    
    50   24   25 am   BACKBONE|DICT|INTERRES
    51   24   94 1    
    52   25   26 2    
    53   25   27 1    
    54   27   28 1    
    55   27   29 1    
    56   27   95 1    
    57   28   96 1    
    58   28   97 1    
    59   28   98 1    
    60   29   30 am   BACKBONE|DICT|INTERRES
    61   29   99 1    
    62   30   31 2    
    63   30   32 1    
    64   32   33 1    
    65   32   34 1    
    66   32  100 1    
    67   33  101 1    
    68   33  102 1    
    69   33  103 1    
    70   34   35 am   BACKBONE|DICT|INTERRES
    71   34  104 1    
    72   35   36 2    
    73   37   38 2    
    74   37   39 am   BACKBONE|DICT|INTERRES
    75   39   40 1    
    76   39  105 1    
    77   40   41 1    
    78   40   42 1    
    79   40  106 1    
    80   41  107 1    
    81   41  108 1    
    82   41  109 1    
    83   42   43 2    
    84   42   44 am   BACKBONE|DICT|INTERRES
    85   44   45 1    
    86   44  110 1    
    87   45   46 1    
    88   45   47 1    
    89   45  111 1    
    90   46  112 1    
    91   46  113 1    
    92   46  114 1    
    93   47   48 2    
    94   47   49 am   BACKBONE|DICT|INTERRES
    95   49   50 1    
    96   49  115 1    
    97   50   51 1    
    98   50   52 1    
    99   50  116 1    
   100   51  117 1    
   101   51  118 1    
   102   51  119 1    
   103   52   53 2    
   104   52   54 am   BACKBONE|DICT|INTERRES
   105   54   55 1    
   106   54  120 1    
   107   55   56 1    
   108   55   57 1    
   109   55  121 1    
   110   56  122 1    
   111   56  123 1    
   112   56  124 1    
   113   57   58 2    
   114   57   59 am   BACKBONE|DICT|INTERRES
   115   59   60 1    
   116   59  125 1    
   117   60   61 1    
   118   60   62 1    
   119   60  126 1    
   120   61  127 1    
   121   61  128 1    
   122   61  129 1    
   123   62   63 2    
   124   62   64 am   BACKBONE|DICT|INTERRES
   125   64   65 1    
   126   64  130 1    
   127   65   66 1    
   128   65   69 1    
   129   65  131 1    
   130   66   67 am   BACKBONE|DICT|INTERRES
   131   66   68 2    
   132   67  132 1    
   133   67  133 1    
   134   69   70 1    
   135   69  134 1    
   136   69  135 1    
   137   70   71 1    
   138   71  136 1    
   139   71  137 1    
@<TRIPOS>SUBSTRUCTURE
     1 UNK         1 GROUP             0       ****    0 ROOT    
