@<TRIPOS>MOLECULE
3R136
137   139    1
SMALL
USER_CHARGES


@<TRIPOS>ATOM
      1 CA         28.9241   24.0588    3.9975 C.3       0 UNK        -0.1979 
      2 C          28.5301   22.8501    3.1643 C.2       0 UNK         0.4864 
      3 O          27.4252   22.3303    3.3259 O.2       0 UNK        -0.5359 
      4 N          29.4209   22.4021    2.2685 N.am      1 UNK        -0.4318 
      5 CA         29.1910   21.2628    1.3673 C.3       1 UNK         0.0824 
      6 C6         30.5070   20.6943    0.7797 C.3       12 UNK        -0.0944 
      7 S7         31.6314   20.0574    2.0691 S.3       12 UNK        -0.2672 
      8 C8         33.0929   21.1247    1.8694 C.3       12 UNK         0.0333 
      9 C9         32.8128   22.5518    2.3133 C.ar      12 UNK        -0.0807 
     10 C10        32.8013   22.8729    3.6732 C.ar      12 UNK        -0.0894 
     11 C11        32.5353   24.1796    4.0920 C.ar      12 UNK        -0.0804 
     12 C12        32.2807   25.1700    3.1379 C.ar      12 UNK        -0.0824 
     13 C13        32.2942   24.8594    1.7750 C.ar      12 UNK        -0.0762 
     14 C14        32.5666   23.5509    1.3683 C.ar      12 UNK        -0.0782 
     15 C15        32.0213   25.9288    0.7312 C.3       12 UNK         0.0230 
     16 S16        30.2784   25.9126    0.2128 S.3       12 UNK        -0.2608 
     17 C17        29.4906   27.0022    1.4497 C.3       12 UNK        -0.0989 
     18 CA         28.9444   28.3049    0.8135 C.3       5 UNK         0.0716 
     19 N          27.9896   28.0450   -0.2705 N.am      5 UNK        -0.4135 
     20 C          27.5829   28.9655   -1.1596 C.2       4 UNK         0.5031 
     21 O          28.0132   30.1191   -1.1910 O.2       4 UNK        -0.5229 
     22 CA         26.5243   28.5479   -2.1990 C.3       4 UNK         0.0329 
     23 CB         27.1932   28.2502   -3.5510 C.3       4 UNK        -0.2001 
     24 N          25.7205   27.3907   -1.8030 N.am      4 UNK        -0.4303 
     25 C          24.8546   27.3551   -0.7798 C.2       3 UNK         0.5044 
     26 O          24.5831   28.3267   -0.0751 O.2       3 UNK        -0.5152 
     27 CA         24.2164   25.9893   -0.4621 C.3       3 UNK         0.0319 
     28 CB         22.8276   25.8811   -1.1115 C.3       3 UNK        -0.2001 
     29 N          25.0365   24.8410   -0.8721 N.am      3 UNK        -0.4354 
     30 C          26.2617   24.5726   -0.4003 C.2       2 UNK         0.4964 
     31 O          26.8450   25.2744    0.4298 O.2       2 UNK        -0.5047 
     32 CA         26.9769   23.3631   -1.0077 C.3       2 UNK         0.0288 
     33 CB         27.6985   23.7580   -2.3082 C.3       2 UNK        -0.2113 
     34 N          27.9559   22.8705   -0.0453 N.am      2 UNK        -0.4145 
     35 C          28.1893   21.5822    0.2348 C.2       1 UNK         0.5006 
     36 O          27.6461   20.6495   -0.3610 O.2       1 UNK        -0.5103 
     37 C          28.3294   29.2274    1.8859 C.2       5 UNK         0.5055 
     38 O          29.0139   30.1328    2.3703 O.2       5 UNK        -0.5220 
     39 N          27.0426   28.9911    2.1986 N.am      6 UNK        -0.4450 
     40 CA         26.1698   29.7699    3.0847 C.3       6 UNK         0.0367 
     41 CB         25.6569   31.0144    2.3233 C.3       6 UNK        -0.1929 
     42 C          26.8378   30.0864    4.4388 C.2       6 UNK         0.5070 
     43 O          27.2313   29.1603    5.1497 O.2       6 UNK        -0.5237 
     44 N          26.9895   31.3788    4.7424 N.am      7 UNK        -0.4739 
     45 CA         27.8163   31.9127    5.8230 C.3       7 UNK         0.0276 
     46 CB         26.9075   32.5060    6.9161 C.3       7 UNK        -0.1927 
     47 C          28.8032   32.9432    5.2430 C.2       7 UNK         0.5013 
     48 O          29.1110   33.9374    5.9013 O.2       7 UNK        -0.5193 
     49 N          29.2712   32.7039    4.0074 N.am      8 UNK        -0.4253 
     50 CA         30.1232   33.6185    3.2376 C.3       8 UNK         0.0242 
     51 CB         29.8591   33.3853    1.7385 C.3       8 UNK        -0.2000 
     52 C          31.6263   33.4910    3.5566 C.2       8 UNK         0.4948 
     53 O          32.4340   34.1189    2.8713 O.2       8 UNK        -0.5275 
     54 N          31.9813   32.6604    4.5503 N.am      9 UNK        -0.4246 
     55 CA         33.3415   32.2910    4.9747 C.3       9 UNK         0.0261 
     56 CB         34.1454   33.5202    5.4498 C.3       9 UNK        -0.1959 
     57 C          34.1098   31.4477    3.9358 C.2       9 UNK         0.5033 
     58 O          35.3269   31.2925    4.0528 O.2       9 UNK        -0.5390 
     59 N          33.3827   30.8621    2.9721 N.am      10 UNK        -0.4215 
     60 CA         33.8946   29.9936    1.9060 C.3       10 UNK         0.0240 
     61 CB         32.7577   29.7260    0.9068 C.3       10 UNK        -0.1982 
     62 C          34.5133   28.6725    2.4062 C.2       10 UNK         0.4970 
     63 O          35.2539   28.0345    1.6580 O.2       10 UNK        -0.4916 
     64 N          34.2147   28.3009    3.6578 N.am      11 UNK        -0.4279 
     65 CA         34.8626   27.2151    4.4051 C.3       11 UNK         0.1003 
     66 C          36.3640   27.4756    4.7387 C.2       11 UNK         0.5709 
     67 N          36.8528   28.7114    4.6933 N.am      11 UNK        -0.7358 
     68 O          37.1024   26.5390    5.0327 O.2       11 UNK        -0.4999 
     69 C69        34.0400   26.8819    5.6812 C.3       12 UNK        -0.0954 
     70 S70        34.1179   25.1240    6.1606 S.3       12 UNK        -0.2268 
     71 C71        32.5075   24.5073    5.5771 C.3       12 UNK         0.0203 
     72 H72        28.0434   24.6438    4.2613 H         1 UNK         0.0888 
     73 H73        29.4138   23.7407    4.9173 H         1 UNK         0.0888 
     74 H74        29.6017   24.7099    3.4498 H         1 UNK         0.0888 
     75 H75        30.3318   22.8379    2.2038 H         1 UNK         0.3017 
     76 H76        28.7299   20.4688    1.9593 H         1 UNK         0.0873 
     77 H77        30.2936   19.8595    0.1089 H         1 UNK         0.0745 
     78 H78        31.0131   21.4427    0.1688 H         1 UNK         0.0745 
     79 H79        33.4279   21.0961    0.8313 H         1 UNK         0.0705 
     80 H80        33.9111   20.7151    2.4636 H         1 UNK         0.0705 
     81 H81        32.9937   22.1009    4.4061 H         1 UNK         0.1334 
     82 H82        32.0716   26.1811    3.4572 H         1 UNK         0.1417 
     83 H83        32.5803   23.3123    0.3132 H         1 UNK         0.1562 
     84 H84        32.6491   25.7547   -0.1440 H         1 UNK         0.0748 
     85 H85        32.2981   26.9124    1.1069 H         1 UNK         0.0748 
     86 H86        30.2046   27.2368    2.2406 H         1 UNK         0.0940 
     87 H87        28.6861   26.4432    1.9302 H         1 UNK         0.0940 
     88 H88        29.7885   28.8419    0.3764 H         1 UNK         0.0703 
     89 H89        27.6006   27.1098   -0.3027 H         1 UNK         0.3081 
     90 H90        25.8468   29.3945   -2.3292 H         1 UNK         0.0719 
     91 H91        27.8712   27.3978   -3.4874 H         1 UNK         0.0809 
     92 H92        26.4535   28.0361   -4.3227 H         1 UNK         0.0809 
     93 H93        27.7772   29.1054   -3.8944 H         1 UNK         0.0809 
     94 H94        25.8658   26.5396   -2.3254 H         1 UNK         0.2990 
     95 H95        24.0926   25.9353    0.6216 H         1 UNK         0.0690 
     96 H96        22.3229   24.9598   -0.8197 H         1 UNK         0.0788 
     97 H97        22.8870   25.9026   -2.2005 H         1 UNK         0.0788 
     98 H98        22.1875   26.7094   -0.8038 H         1 UNK         0.0788 
     99 H99        24.6332   24.2235   -1.5629 H         1 UNK         0.2993 
    100 H100       26.2323   22.5922   -1.2186 H         1 UNK         0.0949 
    101 H101       28.4334   24.5464   -2.1376 H         1 UNK         0.0767 
    102 H102       28.2206   22.9054   -2.7431 H         1 UNK         0.0767 
    103 H103       26.9938   24.1212   -3.0572 H         1 UNK         0.0767 
    104 H104       28.3878   23.5875    0.5238 H         1 UNK         0.3013 
    105 H105       26.5920   28.2134    1.7369 H         1 UNK         0.3121 
    106 H106       25.3086   29.1390    3.3095 H         1 UNK         0.0774 
    107 H107       24.9458   31.5855    2.9217 H         1 UNK         0.0815 
    108 H108       26.4690   31.6810    2.0295 H         1 UNK         0.0815 
    109 H109       25.1349   30.7209    1.4122 H         1 UNK         0.0815 
    110 H110       26.6341   32.0618    4.0872 H         1 UNK         0.2987 
    111 H111       28.4208   31.1194    6.2683 H         1 UNK         0.0949 
    112 H112       26.3178   33.3426    6.5396 H         1 UNK         0.0806 
    113 H113       26.2170   31.7573    7.3046 H         1 UNK         0.0806 
    114 H114       27.4942   32.8713    7.7599 H         1 UNK         0.0806 
    115 H115       29.0133   31.8364    3.5438 H         1 UNK         0.3010 
    116 H116       29.8365   34.6459    3.4723 H         1 UNK         0.0829 
    117 H117       28.8000   33.4846    1.5004 H         1 UNK         0.0813 
    118 H118       30.3947   34.1121    1.1262 H         1 UNK         0.0813 
    119 H119       30.1812   32.3931    1.4203 H         1 UNK         0.0813 
    120 H120       31.2311   32.2066    5.0523 H         1 UNK         0.3038 
    121 H121       33.2123   31.6393    5.8401 H         1 UNK         0.0769 
    122 H122       34.4039   34.1828    4.6235 H         1 UNK         0.0811 
    123 H123       35.0806   33.2163    5.9216 H         1 UNK         0.0811 
    124 H124       33.5874   34.1004    6.1846 H         1 UNK         0.0811 
    125 H125       32.3905   31.0470    2.9613 H         1 UNK         0.3204 
    126 H126       34.6863   30.5384    1.3876 H         1 UNK         0.0748 
    127 H127       33.0888   29.0772    0.0946 H         1 UNK         0.0771 
    128 H128       31.9075   29.2456    1.3907 H         1 UNK         0.0771 
    129 H129       32.4028   30.6518    0.4531 H         1 UNK         0.0771 
    130 H130       33.6031   28.8980    4.1915 H         1 UNK         0.2980 
    131 H131       34.8458   26.3443    3.7470 H         1 UNK         0.0545 
    132 H132       36.2680   29.5026    4.4485 H         1 UNK         0.3459 
    133 H133       37.8262   28.8594    4.9065 H         1 UNK         0.3459 
    134 H134       32.9904   27.1425    5.5398 H         1 UNK         0.0616 
    135 H135       34.3664   27.4878    6.5287 H         1 UNK         0.0616 
    136 H136       31.7198   25.2296    5.7957 H         1 UNK         0.0634 
    137 H137       32.2557   23.6119    6.1475 H         1 UNK         0.0634 
@<TRIPOS>BOND
     1    1    2 1    
     2    1   72 1    
     3    1   73 1    
     4    1   74 1    
     5    2    3 2    
     6    2    4 am   BACKBONE|DICT|INTERRES
     7    4    5 1    
     8    4   75 1    
     9    5    6 1    
    10    5   35 1    
    11    5   76 1    
    12    6    7 1    
    13    6   77 1    
    14    6   78 1    
    15    7    8 1    
    16    8    9 1    
    17    8   79 1    
    18    8   80 1    
    19    9   10 ar   
    20    9   14 ar   
    21   10   11 ar   
    22   10   81 1    
    23   11   12 ar   
    24   11   71 1    
    25   12   13 ar   
    26   12   82 1    
    27   13   14 ar   
    28   13   15 1    
    29   14   83 1    
    30   15   16 1    
    31   15   84 1    
    32   15   85 1    
    33   16   17 1    
    34   17   18 1    
    35   17   86 1    
    36   17   87 1    
    37   18   19 1    
    38   18   37 1    
    39   18   88 1    
    40   19   20 am   BACKBONE|DICT|INTERRES
    41   19   89 1    
    42   20   21 2    
    43   20   22 1    
    44   22   23 1    
    45   22   24 1    
    46   22   90 1    
    47   23   91 1    
    48   23   92 1    
    49   23   93 1    
    50   24   25 am   BACKBONE|DICT|INTERRES
    51   24   94 1    
    52   25   26 2    
    53   25   27 1    
    54   27   28 1    
    55   27   29 1    
    56   27   95 1    
    57   28   96 1    
    58   28   97 1    
    59   28   98 1    
    60   29   30 am   BACKBONE|DICT|INTERRES
    61   29   99 1    
    62   30   31 2    
    63   30   32 1    
    64   32   33 1    
    65   32   34 1    
    66   32  100 1    
    67   33  101 1    
    68   33  102 1    
    69   33  103 1    
    70   34   35 am   BACKBONE|DICT|INTERRES
    71   34  104 1    
    72   35   36 2    
    73   37   38 2    
    74   37   39 am   BACKBONE|DICT|INTERRES
    75   39   40 1    
    76   39  105 1    
    77   40   41 1    
    78   40   42 1    
    79   40  106 1    
    80   41  107 1    
    81   41  108 1    
    82   41  109 1    
    83   42   43 2    
    84   42   44 am   BACKBONE|DICT|INTERRES
    85   44   45 1    
    86   44  110 1    
    87   45   46 1    
    88   45   47 1    
    89   45  111 1    
    90   46  112 1    
    91   46  113 1    
    92   46  114 1    
    93   47   48 2    
    94   47   49 am   BACKBONE|DICT|INTERRES
    95   49   50 1    
    96   49  115 1    
    97   50   51 1    
    98   50   52 1    
    99   50  116 1    
   100   51  117 1    
   101   51  118 1    
   102   51  119 1    
   103   52   53 2    
   104   52   54 am   BACKBONE|DICT|INTERRES
   105   54   55 1    
   106   54  120 1    
   107   55   56 1    
   108   55   57 1    
   109   55  121 1    
   110   56  122 1    
   111   56  123 1    
   112   56  124 1    
   113   57   58 2    
   114   57   59 am   BACKBONE|DICT|INTERRES
   115   59   60 1    
   116   59  125 1    
   117   60   61 1    
   118   60   62 1    
   119   60  126 1    
   120   61  127 1    
   121   61  128 1    
   122   61  129 1    
   123   62   63 2    
   124   62   64 am   BACKBONE|DICT|INTERRES
   125   64   65 1    
   126   64  130 1    
   127   65   66 1    
   128   65   69 1    
   129   65  131 1    
   130   66   67 am   BACKBONE|DICT|INTERRES
   131   66   68 2    
   132   67  132 1    
   133   67  133 1    
   134   69   70 1    
   135   69  134 1    
   136   69  135 1    
   137   70   71 1    
   138   71  136 1    
   139   71  137 1    
@<TRIPOS>SUBSTRUCTURE
     1 UNK         1 GROUP             0       ****    0 ROOT    
