@<TRIPOS>MOLECULE
3R136
137   139    1
SMALL
USER_CHARGES


@<TRIPOS>ATOM
      1 CA         24.5803   23.8643    4.5667 C.3       0 UNK        -0.1979 
      2 C          25.6283   23.8325    3.4647 C.2       0 UNK         0.4864 
      3 O          25.7487   24.8021    2.7135 O.2       0 UNK        -0.5359 
      4 N          26.3809   22.7253    3.3642 N.am      1 UNK        -0.4318 
      5 CA         27.4510   22.4843    2.3852 C.3       1 UNK         0.0824 
      6 C6         28.6928   23.3816    2.6246 C.3       12 UNK        -0.0944 
      7 S7         29.4824   23.1361    4.2495 S.3       12 UNK        -0.2672 
      8 C8         31.1311   22.5238    3.7721 C.3       12 UNK         0.0333 
      9 C9         31.9906   23.5981    3.1134 C.ar      12 UNK        -0.0807 
     10 C10        32.5999   24.5867    3.8933 C.ar      12 UNK        -0.0894 
     11 C11        33.4335   25.5497    3.3124 C.ar      12 UNK        -0.0804 
     12 C12        33.6514   25.5046    1.9312 C.ar      12 UNK        -0.0824 
     13 C13        33.0368   24.5366    1.1323 C.ar      12 UNK        -0.0762 
     14 C14        32.2084   23.5832    1.7313 C.ar      12 UNK        -0.0782 
     15 C15        33.3194   24.4840   -0.3658 C.3       12 UNK         0.0230 
     16 S16        33.1536   26.1046   -1.1917 S.3       12 UNK        -0.2608 
     17 C17        31.3735   26.1857   -1.5694 C.3       12 UNK        -0.0989 
     18 CA         30.6256   27.2292   -0.6984 C.3       5 UNK         0.0716 
     19 N          29.4561   27.7634   -1.3843 N.am      5 UNK        -0.4135 
     20 C          29.1505   29.0600   -1.5063 C.2       4 UNK         0.5031 
     21 O          29.9150   29.9834   -1.2277 O.2       4 UNK        -0.5229 
     22 CA         27.7257   29.3745   -1.9918 C.3       4 UNK         0.0329 
     23 CB         27.6618   29.3807   -3.5274 C.3       4 UNK        -0.2001 
     24 N          26.7434   28.4223   -1.4654 N.am      4 UNK        -0.4303 
     25 C          26.3379   28.3603   -0.1904 C.2       3 UNK         0.5044 
     26 O          26.6891   29.1603    0.6762 O.2       3 UNK        -0.5152 
     27 CA         25.3867   27.2100    0.1878 C.3       3 UNK         0.0319 
     28 CB         23.9970   27.3862   -0.4558 C.3       3 UNK        -0.2001 
     29 N          25.9327   25.8663   -0.0554 N.am      3 UNK        -0.4354 
     30 C          26.2564   25.2866   -1.2244 C.2       2 UNK         0.4964 
     31 O          26.1202   25.8411   -2.3165 O.2       2 UNK        -0.5047 
     32 CA         26.8489   23.8647   -1.1836 C.3       2 UNK         0.0288 
     33 CB         27.9838   23.6924   -2.2100 C.3       2 UNK        -0.2113 
     34 N          27.3645   23.5406    0.1468 N.am      2 UNK        -0.4145 
     35 C          26.8869   22.5762    0.9469 C.2       1 UNK         0.5006 
     36 O          26.0082   21.7803    0.6062 O.2       1 UNK        -0.5103 
     37 C          30.0641   26.6234    0.5922 C.2       5 UNK         0.5055 
     38 O          29.3845   25.5963    0.5210 O.2       5 UNK        -0.5220 
     39 N          30.2766   27.3057    1.7205 N.am      6 UNK        -0.4450 
     40 CA         29.7729   26.9300    3.0350 C.3       6 UNK         0.0367 
     41 CB         28.2633   27.2249    3.1377 C.3       6 UNK        -0.1929 
     42 C          30.5337   27.7184    4.0956 C.2       6 UNK         0.5070 
     43 O          31.0756   28.7843    3.7905 O.2       6 UNK        -0.5237 
     44 N          30.5275   27.2121    5.3351 N.am      7 UNK        -0.4739 
     45 CA         31.1327   27.8658    6.5020 C.3       7 UNK         0.0276 
     46 CB         31.0655   26.9236    7.7132 C.3       7 UNK        -0.1927 
     47 C          30.4883   29.2245    6.8253 C.2       7 UNK         0.5013 
     48 O          31.2005   30.1683    7.1663 O.2       7 UNK        -0.5193 
     49 N          29.1655   29.3219    6.6265 N.am      8 UNK        -0.4253 
     50 CA         28.3851   30.5602    6.7280 C.3       8 UNK         0.0242 
     51 CB         26.8888   30.2200    6.6332 C.3       8 UNK        -0.2000 
     52 C          28.7617   31.6195    5.6729 C.2       8 UNK         0.4948 
     53 O          28.5438   32.8075    5.9113 O.2       8 UNK        -0.5275 
     54 N          29.3336   31.1771    4.5447 N.am      9 UNK        -0.4246 
     55 CA         29.8654   32.0186    3.4728 C.3       9 UNK         0.0261 
     56 CB         29.4691   31.3954    2.1203 C.3       9 UNK        -0.1959 
     57 C          31.3946   32.1856    3.5760 C.2       9 UNK         0.5033 
     58 O          31.9940   32.7223    2.6432 O.2       9 UNK        -0.5390 
     59 N          32.0121   31.6975    4.6668 N.am      10 UNK        -0.4215 
     60 CA         33.4571   31.6681    4.9350 C.3       10 UNK         0.0240 
     61 CB         33.9816   33.0915    5.2204 C.3       10 UNK        -0.1982 
     62 C          34.2641   30.9376    3.8406 C.2       10 UNK         0.4970 
     63 O          35.3699   31.3656    3.5057 O.2       10 UNK        -0.4916 
     64 N          33.6739   29.8675    3.2906 N.am      11 UNK        -0.4279 
     65 CA         34.1493   29.0950    2.1314 C.3       11 UNK         0.1003 
     66 C          34.0793   29.8693    0.7771 C.2       11 UNK         0.5709 
     67 N          33.4188   31.0181    0.6865 N.am      11 UNK        -0.7358 
     68 O          34.6055   29.4033   -0.2298 O.2       11 UNK        -0.4999 
     69 C69        35.5360   28.4096    2.3535 C.3       12 UNK        -0.0954 
     70 S70        35.7200   27.2047    3.7272 S.3       12 UNK        -0.2268 
     71 C71        34.0484   26.6343    4.2009 C.3       12 UNK         0.0203 
     72 H72        23.5875   23.9876    4.1352 H         1 UNK         0.0888 
     73 H73        24.5827   22.9499    5.1596 H         1 UNK         0.0888 
     74 H74        24.7682   24.7035    5.2359 H         1 UNK         0.0888 
     75 H75        26.2090   21.9600    4.0007 H         1 UNK         0.3017 
     76 H76        27.7635   21.4469    2.5144 H         1 UNK         0.0873 
     77 H77        28.4006   24.4269    2.5634 H         1 UNK         0.0745 
     78 H78        29.4356   23.2184    1.8440 H         1 UNK         0.0745 
     79 H79        31.0187   21.6592    3.1160 H         1 UNK         0.0705 
     80 H80        31.6388   22.1590    4.6662 H         1 UNK         0.0705 
     81 H81        32.4224   24.6027    4.9602 H         1 UNK         0.1334 
     82 H82        34.3030   26.2203    1.4579 H         1 UNK         0.1417 
     83 H83        31.7474   22.8169    1.1233 H         1 UNK         0.1562 
     84 H84        32.6823   23.7516   -0.8638 H         1 UNK         0.0748 
     85 H85        34.3438   24.1354   -0.5028 H         1 UNK         0.0748 
     86 H86        30.9267   25.1920   -1.5144 H         1 UNK         0.0940 
     87 H87        31.3046   26.4715   -2.6204 H         1 UNK         0.0940 
     88 H88        31.3126   28.0408   -0.4468 H         1 UNK         0.0703 
     89 H89        28.7367   27.0874   -1.5958 H         1 UNK         0.3081 
     90 H90        27.4629   30.3719   -1.6324 H         1 UNK         0.0719 
     91 H91        28.3777   30.0905   -3.9443 H         1 UNK         0.0809 
     92 H92        27.8907   28.4002   -3.9472 H         1 UNK         0.0809 
     93 H93        26.6730   29.6737   -3.8809 H         1 UNK         0.0809 
     94 H94        26.4241   27.6816   -2.0854 H         1 UNK         0.2990 
     95 H95        25.2478   27.2689    1.2688 H         1 UNK         0.0690 
     96 H96        23.3009   26.6254   -0.1027 H         1 UNK         0.0788 
     97 H97        24.0332   27.3261   -1.5438 H         1 UNK         0.0788 
     98 H98        23.5717   28.3575   -0.1999 H         1 UNK         0.0788 
     99 H99        26.0727   25.3260    0.7949 H         1 UNK         0.2993 
    100 H100       26.0377   23.1871   -1.4573 H         1 UNK         0.0949 
    101 H101       27.6223   23.8440   -3.2279 H         1 UNK         0.0767 
    102 H102       28.7889   24.4058   -2.0388 H         1 UNK         0.0767 
    103 H103       28.4089   22.6896   -2.1658 H         1 UNK         0.0767 
    104 H104       28.0835   24.1737    0.4940 H         1 UNK         0.3013 
    105 H105       30.8317   28.1514    1.7193 H         1 UNK         0.3121 
    106 H106       29.9763   25.8721    3.1940 H         1 UNK         0.0774 
    107 H107       27.6971   26.7101    2.3627 H         1 UNK         0.0815 
    108 H108       27.8595   26.8956    4.0955 H         1 UNK         0.0815 
    109 H109       28.0539   28.2910    3.0385 H         1 UNK         0.0815 
    110 H110       30.0623   26.3299    5.4992 H         1 UNK         0.2987 
    111 H111       32.1841   28.0543    6.2761 H         1 UNK         0.0949 
    112 H112       31.5989   25.9924    7.5206 H         1 UNK         0.0806 
    113 H113       31.5253   27.3824    8.5898 H         1 UNK         0.0806 
    114 H114       30.0373   26.6735    7.9775 H         1 UNK         0.0806 
    115 H115       28.6658   28.4904    6.3467 H         1 UNK         0.3010 
    116 H116       28.5783   30.9968    7.7104 H         1 UNK         0.0829 
    117 H117       26.5855   29.5350    7.4253 H         1 UNK         0.0813 
    118 H118       26.2775   31.1181    6.7337 H         1 UNK         0.0813 
    119 H119       26.6379   29.7612    5.6758 H         1 UNK         0.0813 
    120 H120       29.5172   30.1867    4.4482 H         1 UNK         0.3038 
    121 H121       29.4275   33.0172    3.5279 H         1 UNK         0.0769 
    122 H122       29.7794   32.0283    1.2878 H         1 UNK         0.0811 
    123 H123       28.3893   31.2677    2.0404 H         1 UNK         0.0811 
    124 H124       29.9301   30.4191    1.9700 H         1 UNK         0.0811 
    125 H125       31.4418   31.2608    5.3825 H         1 UNK         0.3204 
    126 H126       33.5858   31.0802    5.8450 H         1 UNK         0.0748 
    127 H127       35.0231   33.0689    5.5433 H         1 UNK         0.0771 
    128 H128       33.9284   33.7265    4.3353 H         1 UNK         0.0771 
    129 H129       33.4089   33.5727    6.0133 H         1 UNK         0.0771 
    130 H130       32.7421   29.6152    3.6104 H         1 UNK         0.2980 
    131 H131       33.4079   28.3084    2.0039 H         1 UNK         0.0545 
    132 H132       33.3764   31.4814   -0.2065 H         1 UNK         0.3459 
    133 H133       32.9853   31.4546    1.4933 H         1 UNK         0.3459 
    134 H134       35.8345   27.8731    1.4518 H         1 UNK         0.0616 
    135 H135       36.3077   29.1683    2.4859 H         1 UNK         0.0616 
    136 H136       34.1328   26.2481    5.2178 H         1 UNK         0.0634 
    137 H137       33.3708   27.4780    4.2708 H         1 UNK         0.0634 
@<TRIPOS>BOND
     1    1    2 1    
     2    1   72 1    
     3    1   73 1    
     4    1   74 1    
     5    2    3 2    
     6    2    4 am   BACKBONE|DICT|INTERRES
     7    4    5 1    
     8    4   75 1    
     9    5    6 1    
    10    5   35 1    
    11    5   76 1    
    12    6    7 1    
    13    6   77 1    
    14    6   78 1    
    15    7    8 1    
    16    8    9 1    
    17    8   79 1    
    18    8   80 1    
    19    9   10 ar   
    20    9   14 ar   
    21   10   11 ar   
    22   10   81 1    
    23   11   12 ar   
    24   11   71 1    
    25   12   13 ar   
    26   12   82 1    
    27   13   14 ar   
    28   13   15 1    
    29   14   83 1    
    30   15   16 1    
    31   15   84 1    
    32   15   85 1    
    33   16   17 1    
    34   17   18 1    
    35   17   86 1    
    36   17   87 1    
    37   18   19 1    
    38   18   37 1    
    39   18   88 1    
    40   19   20 am   BACKBONE|DICT|INTERRES
    41   19   89 1    
    42   20   21 2    
    43   20   22 1    
    44   22   23 1    
    45   22   24 1    
    46   22   90 1    
    47   23   91 1    
    48   23   92 1    
    49   23   93 1    
    50   24   25 am   BACKBONE|DICT|INTERRES
    51   24   94 1    
    52   25   26 2    
    53   25   27 1    
    54   27   28 1    
    55   27   29 1    
    56   27   95 1    
    57   28   96 1    
    58   28   97 1    
    59   28   98 1    
    60   29   30 am   BACKBONE|DICT|INTERRES
    61   29   99 1    
    62   30   31 2    
    63   30   32 1    
    64   32   33 1    
    65   32   34 1    
    66   32  100 1    
    67   33  101 1    
    68   33  102 1    
    69   33  103 1    
    70   34   35 am   BACKBONE|DICT|INTERRES
    71   34  104 1    
    72   35   36 2    
    73   37   38 2    
    74   37   39 am   BACKBONE|DICT|INTERRES
    75   39   40 1    
    76   39  105 1    
    77   40   41 1    
    78   40   42 1    
    79   40  106 1    
    80   41  107 1    
    81   41  108 1    
    82   41  109 1    
    83   42   43 2    
    84   42   44 am   BACKBONE|DICT|INTERRES
    85   44   45 1    
    86   44  110 1    
    87   45   46 1    
    88   45   47 1    
    89   45  111 1    
    90   46  112 1    
    91   46  113 1    
    92   46  114 1    
    93   47   48 2    
    94   47   49 am   BACKBONE|DICT|INTERRES
    95   49   50 1    
    96   49  115 1    
    97   50   51 1    
    98   50   52 1    
    99   50  116 1    
   100   51  117 1    
   101   51  118 1    
   102   51  119 1    
   103   52   53 2    
   104   52   54 am   BACKBONE|DICT|INTERRES
   105   54   55 1    
   106   54  120 1    
   107   55   56 1    
   108   55   57 1    
   109   55  121 1    
   110   56  122 1    
   111   56  123 1    
   112   56  124 1    
   113   57   58 2    
   114   57   59 am   BACKBONE|DICT|INTERRES
   115   59   60 1    
   116   59  125 1    
   117   60   61 1    
   118   60   62 1    
   119   60  126 1    
   120   61  127 1    
   121   61  128 1    
   122   61  129 1    
   123   62   63 2    
   124   62   64 am   BACKBONE|DICT|INTERRES
   125   64   65 1    
   126   64  130 1    
   127   65   66 1    
   128   65   69 1    
   129   65  131 1    
   130   66   67 am   BACKBONE|DICT|INTERRES
   131   66   68 2    
   132   67  132 1    
   133   67  133 1    
   134   69   70 1    
   135   69  134 1    
   136   69  135 1    
   137   70   71 1    
   138   71  136 1    
   139   71  137 1    
@<TRIPOS>SUBSTRUCTURE
     1 UNK         1 GROUP             0       ****    0 ROOT    
