@<TRIPOS>MOLECULE
3R136
137   139    1
SMALL
USER_CHARGES


@<TRIPOS>ATOM
      1 CA         26.2865   24.5505   -3.3167 C.3       0 UNK        -0.1979 
      2 C          27.3481   23.5110   -3.6699 C.2       0 UNK         0.4864 
      3 O          27.1606   22.7600   -4.6255 O.2       0 UNK        -0.5359 
      4 N          28.4757   23.4271   -2.9477 N.am      1 UNK        -0.4318 
      5 CA         28.8264   24.2025   -1.7501 C.3       1 UNK         0.0824 
      6 C6         30.3453   24.1345   -1.4502 C.3       12 UNK        -0.0944 
      7 S7         30.9522   22.4397   -1.1310 S.3       12 UNK        -0.2672 
      8 C8         32.4167   22.7613   -0.0961 C.3       12 UNK         0.0333 
      9 C9         32.1177   23.3613    1.2777 C.ar      12 UNK        -0.0807 
     10 C10        32.9779   24.3399    1.7872 C.ar      12 UNK        -0.0894 
     11 C11        32.8000   24.8439    3.0772 C.ar      12 UNK        -0.0804 
     12 C12        31.7409   24.3773    3.8579 C.ar      12 UNK        -0.0824 
     13 C13        30.8598   23.4117    3.3617 C.ar      12 UNK        -0.0762 
     14 C14        31.0540   22.9052    2.0704 C.ar      12 UNK        -0.0782 
     15 C15        29.7419   22.8769    4.2515 C.3       12 UNK         0.0230 
     16 S16        28.1451   23.7172    3.9882 S.3       12 UNK        -0.2608 
     17 C17        28.5252   25.4446    4.4517 C.3       12 UNK        -0.0989 
     18 CA         28.6976   26.3149    3.1815 C.3       5 UNK         0.0716 
     19 N          27.4485   26.4360    2.4215 N.am      5 UNK        -0.4135 
     20 C          26.3818   27.2015    2.6975 C.2       4 UNK         0.5031 
     21 O          26.3169   28.0107    3.6234 O.2       4 UNK        -0.5229 
     22 CA         25.1534   26.9897    1.7976 C.3       4 UNK         0.0329 
     23 CB         25.4327   27.4148    0.3451 C.3       4 UNK        -0.2001 
     24 N          24.7128   25.5949    1.8328 N.am      4 UNK        -0.4303 
     25 C          24.1423   24.9954    2.8868 C.2       3 UNK         0.5044 
     26 O          23.8007   25.5928    3.9080 O.2       3 UNK        -0.5152 
     27 CA         23.9325   23.4702    2.8173 C.3       3 UNK         0.0319 
     28 CB         22.5809   23.1151    2.1663 C.3       3 UNK        -0.2001 
     29 N          25.0529   22.7372    2.2077 N.am      3 UNK        -0.4354 
     30 C          25.4545   22.7385    0.9299 C.2       2 UNK         0.4964 
     31 O          24.8661   23.3265    0.0194 O.2       2 UNK        -0.5047 
     32 CA         26.7500   21.9655    0.6316 C.3       2 UNK         0.0288 
     33 CB         26.4353   20.5000    0.2922 C.3       2 UNK        -0.2113 
     34 N          27.5274   22.5507   -0.4632 N.am      2 UNK        -0.4145 
     35 C          27.9993   23.8065   -0.5095 C.2       1 UNK         0.5006 
     36 O          27.8084   24.6470    0.3681 O.2       1 UNK        -0.5103 
     37 C          29.3684   27.6796    3.4322 C.2       5 UNK         0.5055 
     38 O          29.6715   28.0374    4.5739 O.2       5 UNK        -0.5220 
     39 N          29.5717   28.4204    2.3382 N.am      6 UNK        -0.4450 
     40 CA         30.2195   29.7217    2.3122 C.3       6 UNK         0.0367 
     41 CB         29.1580   30.8301    2.4241 C.3       6 UNK        -0.1929 
     42 C          31.0199   29.8524    1.0142 C.2       6 UNK         0.5070 
     43 O          30.6820   29.2140    0.0136 O.2       6 UNK        -0.5237 
     44 N          32.0466   30.7008    1.0614 N.am      7 UNK        -0.4739 
     45 CA         32.9007   31.0819   -0.0578 C.3       7 UNK         0.0276 
     46 CB         34.2223   30.2883    0.0177 C.3       7 UNK        -0.1927 
     47 C          33.0575   32.6082    0.0048 C.2       7 UNK         0.5013 
     48 O          32.0599   33.3152   -0.1482 O.2       7 UNK        -0.5193 
     49 N          34.2753   33.0988    0.2780 N.am      8 UNK        -0.4253 
     50 CA         34.5548   34.5108    0.5755 C.3       8 UNK         0.0242 
     51 CB         36.0716   34.7514    0.5026 C.3       8 UNK        -0.2000 
     52 C          34.0020   34.9601    1.9447 C.2       8 UNK         0.4948 
     53 O          33.7974   36.1562    2.1552 O.2       8 UNK        -0.5275 
     54 N          33.7644   33.9940    2.8372 N.am      9 UNK        -0.4246 
     55 CA         33.1052   34.1241    4.1300 C.3       9 UNK         0.0261 
     56 CB         34.1643   34.3542    5.2234 C.3       9 UNK        -0.1959 
     57 C          32.3149   32.8299    4.3722 C.2       9 UNK         0.5033 
     58 O          32.4512   31.8777    3.5950 O.2       9 UNK        -0.5390 
     59 N          31.5139   32.8019    5.4444 N.am      10 UNK        -0.4215 
     60 CA         30.7507   31.6344    5.8969 C.3       10 UNK         0.0240 
     61 CB         29.6543   32.0973    6.8738 C.3       10 UNK        -0.1982 
     62 C          31.6762   30.5686    6.5141 C.2       10 UNK         0.4970 
     63 O          31.7924   30.4863    7.7383 O.2       10 UNK        -0.4916 
     64 N          32.3588   29.8170    5.6446 N.am      11 UNK        -0.4279 
     65 CA         33.3437   28.7855    5.9891 C.3       11 UNK         0.1003 
     66 C          32.7863   27.5530    6.7605 C.2       11 UNK         0.5709 
     67 N          31.5030   27.2283    6.6591 N.am      11 UNK        -0.7358 
     68 O          33.5350   26.8886    7.4729 O.2       11 UNK        -0.4999 
     69 C69        34.1868   28.3843    4.7488 C.3       12 UNK        -0.0954 
     70 S70        33.2230   27.5593    3.4324 S.3       12 UNK        -0.2268 
     71 C71        33.7846   25.8452    3.6581 C.3       12 UNK         0.0203 
     72 H72        25.7972   24.3041   -2.3752 H         1 UNK         0.0888 
     73 H73        26.7151   25.5490   -3.2424 H         1 UNK         0.0888 
     74 H74        25.5170   24.5835   -4.0877 H         1 UNK         0.0888 
     75 H75        29.1657   22.7392   -3.2163 H         1 UNK         0.3017 
     76 H76        28.5970   25.2501   -1.9522 H         1 UNK         0.0873 
     77 H77        30.9066   24.5425   -2.2923 H         1 UNK         0.0745 
     78 H78        30.5866   24.7754   -0.5995 H         1 UNK         0.0745 
     79 H79        32.9460   21.8193    0.0517 H         1 UNK         0.0705 
     80 H80        33.0934   23.4070   -0.6583 H         1 UNK         0.0705 
     81 H81        33.8115   24.6880    1.1923 H         1 UNK         0.1334 
     82 H82        31.6183   24.7564    4.8631 H         1 UNK         0.1417 
     83 H83        30.3907   22.1390    1.6928 H         1 UNK         0.1562 
     84 H84        30.0202   22.9624    5.3032 H         1 UNK         0.0748 
     85 H85        29.6076   21.8105    4.0645 H         1 UNK         0.0748 
     86 H86        29.4179   25.4633    5.0767 H         1 UNK         0.0940 
     87 H87        27.7182   25.8332    5.0750 H         1 UNK         0.0940 
     88 H88        29.3898   25.7890    2.5213 H         1 UNK         0.0703 
     89 H89        27.3954   25.7981    1.6274 H         1 UNK         0.3081 
     90 H90        24.3438   27.6143    2.1815 H         1 UNK         0.0719 
     91 H91        26.1909   26.7910   -0.1289 H         1 UNK         0.0809 
     92 H92        24.5292   27.3560   -0.2620 H         1 UNK         0.0809 
     93 H93        25.7844   28.4465    0.3022 H         1 UNK         0.0809 
     94 H94        24.9324   25.0128    1.0304 H         1 UNK         0.2990 
     95 H95        23.8927   23.1196    3.8500 H         1 UNK         0.0690 
     96 H96        22.4170   22.0375    2.1545 H         1 UNK         0.0788 
     97 H97        22.5093   23.4775    1.1406 H         1 UNK         0.0788 
     98 H98        21.7559   23.5626    2.7221 H         1 UNK         0.0788 
     99 H99        25.6331   22.2428    2.8722 H         1 UNK         0.2993 
    100 H100       27.3819   21.9932    1.5218 H         1 UNK         0.0949 
    101 H101       25.8817   20.0196    1.1003 H         1 UNK         0.0767 
    102 H102       25.8295   20.4182   -0.6114 H         1 UNK         0.0767 
    103 H103       27.3474   19.9225    0.1396 H         1 UNK         0.0767 
    104 H104       27.7296   21.9457   -1.2451 H         1 UNK         0.3013 
    105 H105       29.3521   28.0431    1.4249 H         1 UNK         0.3121 
    106 H106       30.9153   29.7904    3.1485 H         1 UNK         0.0774 
    107 H107       28.4759   30.8196    1.5731 H         1 UNK         0.0815 
    108 H108       29.6252   31.8153    2.4587 H         1 UNK         0.0815 
    109 H109       28.5607   30.7197    3.3293 H         1 UNK         0.0815 
    110 H110       32.2128   31.1974    1.9369 H         1 UNK         0.2987 
    111 H111       32.4079   30.8542   -1.0058 H         1 UNK         0.0949 
    112 H112       34.7415   30.4400    0.9650 H         1 UNK         0.0806 
    113 H113       34.0345   29.2186   -0.0786 H         1 UNK         0.0806 
    114 H114       34.8996   30.5649   -0.7915 H         1 UNK         0.0806 
    115 H115       35.0451   32.4519    0.3736 H         1 UNK         0.3010 
    116 H116       34.0725   35.1241   -0.1889 H         1 UNK         0.0829 
    117 H117       36.4668   34.5029   -0.4826 H         1 UNK         0.0813 
    118 H118       36.3090   35.7998    0.6896 H         1 UNK         0.0813 
    119 H119       36.6117   34.1589    1.2423 H         1 UNK         0.0813 
    120 H120       33.9007   33.0317    2.5566 H         1 UNK         0.3038 
    121 H121       32.4018   34.9590    4.1049 H         1 UNK         0.0769 
    122 H122       34.8544   33.5126    5.2982 H         1 UNK         0.0811 
    123 H123       33.7037   34.4885    6.2026 H         1 UNK         0.0811 
    124 H124       34.7523   35.2495    5.0205 H         1 UNK         0.0811 
    125 H125       31.4780   33.6162    6.0408 H         1 UNK         0.3204 
    126 H126       30.2531   31.1829    5.0381 H         1 UNK         0.0748 
    127 H127       30.0719   32.5973    7.7487 H         1 UNK         0.0771 
    128 H128       28.9606   32.7868    6.3922 H         1 UNK         0.0771 
    129 H129       29.0694   31.2484    7.2309 H         1 UNK         0.0771 
    130 H130       32.2532   30.0134    4.6587 H         1 UNK         0.2980 
    131 H131       34.0353   29.2652    6.6843 H         1 UNK         0.0545 
    132 H132       31.1517   26.4463    7.1859 H         1 UNK         0.3459 
    133 H133       30.8925   27.7214    6.0130 H         1 UNK         0.3459 
    134 H134       34.6406   29.2761    4.3136 H         1 UNK         0.0616 
    135 H135       35.0250   27.7526    5.0479 H         1 UNK         0.0616 
    136 H136       33.9189   25.6362    4.7204 H         1 UNK         0.0634 
    137 H137       34.7670   25.7286    3.1982 H         1 UNK         0.0634 
@<TRIPOS>BOND
     1    1    2 1    
     2    1   72 1    
     3    1   73 1    
     4    1   74 1    
     5    2    3 2    
     6    2    4 am   BACKBONE|DICT|INTERRES
     7    4    5 1    
     8    4   75 1    
     9    5    6 1    
    10    5   35 1    
    11    5   76 1    
    12    6    7 1    
    13    6   77 1    
    14    6   78 1    
    15    7    8 1    
    16    8    9 1    
    17    8   79 1    
    18    8   80 1    
    19    9   10 ar   
    20    9   14 ar   
    21   10   11 ar   
    22   10   81 1    
    23   11   12 ar   
    24   11   71 1    
    25   12   13 ar   
    26   12   82 1    
    27   13   14 ar   
    28   13   15 1    
    29   14   83 1    
    30   15   16 1    
    31   15   84 1    
    32   15   85 1    
    33   16   17 1    
    34   17   18 1    
    35   17   86 1    
    36   17   87 1    
    37   18   19 1    
    38   18   37 1    
    39   18   88 1    
    40   19   20 am   BACKBONE|DICT|INTERRES
    41   19   89 1    
    42   20   21 2    
    43   20   22 1    
    44   22   23 1    
    45   22   24 1    
    46   22   90 1    
    47   23   91 1    
    48   23   92 1    
    49   23   93 1    
    50   24   25 am   BACKBONE|DICT|INTERRES
    51   24   94 1    
    52   25   26 2    
    53   25   27 1    
    54   27   28 1    
    55   27   29 1    
    56   27   95 1    
    57   28   96 1    
    58   28   97 1    
    59   28   98 1    
    60   29   30 am   BACKBONE|DICT|INTERRES
    61   29   99 1    
    62   30   31 2    
    63   30   32 1    
    64   32   33 1    
    65   32   34 1    
    66   32  100 1    
    67   33  101 1    
    68   33  102 1    
    69   33  103 1    
    70   34   35 am   BACKBONE|DICT|INTERRES
    71   34  104 1    
    72   35   36 2    
    73   37   38 2    
    74   37   39 am   BACKBONE|DICT|INTERRES
    75   39   40 1    
    76   39  105 1    
    77   40   41 1    
    78   40   42 1    
    79   40  106 1    
    80   41  107 1    
    81   41  108 1    
    82   41  109 1    
    83   42   43 2    
    84   42   44 am   BACKBONE|DICT|INTERRES
    85   44   45 1    
    86   44  110 1    
    87   45   46 1    
    88   45   47 1    
    89   45  111 1    
    90   46  112 1    
    91   46  113 1    
    92   46  114 1    
    93   47   48 2    
    94   47   49 am   BACKBONE|DICT|INTERRES
    95   49   50 1    
    96   49  115 1    
    97   50   51 1    
    98   50   52 1    
    99   50  116 1    
   100   51  117 1    
   101   51  118 1    
   102   51  119 1    
   103   52   53 2    
   104   52   54 am   BACKBONE|DICT|INTERRES
   105   54   55 1    
   106   54  120 1    
   107   55   56 1    
   108   55   57 1    
   109   55  121 1    
   110   56  122 1    
   111   56  123 1    
   112   56  124 1    
   113   57   58 2    
   114   57   59 am   BACKBONE|DICT|INTERRES
   115   59   60 1    
   116   59  125 1    
   117   60   61 1    
   118   60   62 1    
   119   60  126 1    
   120   61  127 1    
   121   61  128 1    
   122   61  129 1    
   123   62   63 2    
   124   62   64 am   BACKBONE|DICT|INTERRES
   125   64   65 1    
   126   64  130 1    
   127   65   66 1    
   128   65   69 1    
   129   65  131 1    
   130   66   67 am   BACKBONE|DICT|INTERRES
   131   66   68 2    
   132   67  132 1    
   133   67  133 1    
   134   69   70 1    
   135   69  134 1    
   136   69  135 1    
   137   70   71 1    
   138   71  136 1    
   139   71  137 1    
@<TRIPOS>SUBSTRUCTURE
     1 UNK         1 GROUP             0       ****    0 ROOT    
