@<TRIPOS>MOLECULE
3R136
137   139    1
SMALL
USER_CHARGES


@<TRIPOS>ATOM
      1 CA         36.0182   23.3289    2.1900 C.3       0 UNK        -0.1979 
      2 C          34.5085   23.1764    2.0803 C.2       0 UNK         0.4864 
      3 O          33.9397   22.2872    2.7139 O.2       0 UNK        -0.5359 
      4 N          33.8637   24.0289    1.2758 N.am      1 UNK        -0.4318 
      5 CA         32.4189   24.0880    1.0670 C.3       1 UNK         0.0824 
      6 C6         31.8963   22.8748    0.2426 C.3       12 UNK        -0.0944 
      7 S7         30.0846   22.6382    0.2557 S.3       12 UNK        -0.2672 
      8 C8         29.7894   21.8466    1.8712 C.3       12 UNK         0.0333 
      9 C9         29.7981   22.8562    3.0114 C.ar      12 UNK        -0.0807 
     10 C10        30.7688   22.7843    4.0139 C.ar      12 UNK        -0.0894 
     11 C11        30.8031   23.7343    5.0384 C.ar      12 UNK        -0.0804 
     12 C12        29.8355   24.7428    5.0767 C.ar      12 UNK        -0.0824 
     13 C13        28.8437   24.8171    4.0925 C.ar      12 UNK        -0.0762 
     14 C14        28.8407   23.8739    3.0566 C.ar      12 UNK        -0.0782 
     15 C15        27.8237   25.9526    4.1389 C.3       12 UNK         0.0230 
     16 S16        26.1612   25.4737    3.5519 S.3       12 UNK        -0.2608 
     17 C17        25.3483   27.1027    3.4577 C.3       12 UNK        -0.0989 
     18 CA         25.7099   27.8699    2.1569 C.3       5 UNK         0.0716 
     19 N          25.4071   27.1345    0.9248 N.am      5 UNK        -0.4135 
     20 C          24.1975   26.9149    0.3916 C.2       4 UNK         0.5031 
     21 O          23.1396   27.1672    0.9710 O.2       4 UNK        -0.5229 
     22 CA         24.1576   26.3499   -1.0468 C.3       4 UNK         0.0329 
     23 CB         23.0272   26.9946   -1.8769 C.3       4 UNK        -0.2001 
     24 N          25.4289   26.4310   -1.7877 N.am      4 UNK        -0.4303 
     25 C          26.1584   27.5255   -2.0564 C.2       3 UNK         0.5044 
     26 O          25.8893   28.6580   -1.6487 O.2       3 UNK        -0.5152 
     27 CA         27.4452   27.3014   -2.8681 C.3       3 UNK         0.0319 
     28 CB         27.5359   28.2897   -4.0432 C.3       3 UNK        -0.2001 
     29 N          28.6397   27.4361   -2.0306 N.am      3 UNK        -0.4354 
     30 C          28.9576   26.6327   -1.0071 C.2       2 UNK         0.4964 
     31 O          28.2694   25.6768   -0.6397 O.2       2 UNK        -0.5047 
     32 CA         30.2333   26.9825   -0.2346 C.3       2 UNK         0.0288 
     33 CB         29.9017   27.9592    0.9011 C.3       2 UNK        -0.2113 
     34 N          30.7839   25.7585    0.3359 N.am      2 UNK        -0.4145 
     35 C          32.0817   25.4623    0.4557 C.2       1 UNK         0.5006 
     36 O          32.9950   26.2253    0.1206 O.2       1 UNK        -0.5103 
     37 C          25.1675   29.3191    2.1312 C.2       5 UNK         0.5055 
     38 O          24.7344   29.8311    3.1658 O.2       5 UNK        -0.5220 
     39 N          25.2218   29.9716    0.9561 N.am      6 UNK        -0.4450 
     40 CA         24.9024   31.3958    0.7812 C.3       6 UNK         0.0367 
     41 CB         24.8203   31.7150   -0.7197 C.3       6 UNK        -0.1929 
     42 C          25.9170   32.3251    1.4784 C.2       6 UNK         0.5070 
     43 O          25.5736   33.4508    1.8399 O.2       6 UNK        -0.5237 
     44 N          27.1348   31.8154    1.6755 N.am      7 UNK        -0.4739 
     45 CA         28.1918   32.3425    2.5270 C.3       7 UNK         0.0276 
     46 CB         29.1887   33.1399    1.6674 C.3       7 UNK        -0.1927 
     47 C          28.8651   31.1316    3.1908 C.2       7 UNK         0.5013 
     48 O          28.5852   29.9941    2.8022 O.2       7 UNK        -0.5193 
     49 N          29.7474   31.3799    4.1658 N.am      8 UNK        -0.4253 
     50 CA         30.5594   30.3306    4.7937 C.3       8 UNK         0.0242 
     51 CB         31.0572   30.8175    6.1631 C.3       8 UNK        -0.2000 
     52 C          31.7385   29.8910    3.9050 C.2       8 UNK         0.4948 
     53 O          32.1114   28.7176    3.9345 O.2       8 UNK        -0.5275 
     54 N          32.2954   30.8397    3.1330 N.am      9 UNK        -0.4246 
     55 CA         33.4306   30.6932    2.2132 C.3       9 UNK         0.0261 
     56 CB         32.9881   29.9678    0.9221 C.3       9 UNK        -0.1959 
     57 C          34.6497   30.0562    2.9094 C.2       9 UNK         0.5033 
     58 O          35.1443   30.6224    3.8864 O.2       9 UNK        -0.5390 
     59 N          35.0888   28.8847    2.4302 N.am      10 UNK        -0.4215 
     60 CA         36.1893   28.0957    2.9901 C.3       10 UNK         0.0240 
     61 CB         36.4778   26.9134    2.0533 C.3       10 UNK        -0.1982 
     62 C          35.9491   27.5973    4.4289 C.2       10 UNK         0.4970 
     63 O          36.9254   27.3444    5.1358 O.2       10 UNK        -0.4916 
     64 N          34.6799   27.4794    4.8405 N.am      11 UNK        -0.4279 
     65 CA         34.2732   27.1681    6.2184 C.3       11 UNK         0.1003 
     66 C          34.1157   28.4334    7.1133 C.2       11 UNK         0.5709 
     67 N          34.3870   29.6435    6.6343 N.am      11 UNK        -0.7358 
     68 O          33.7622   28.3155    8.2842 O.2       11 UNK        -0.4999 
     69 C69        33.0134   26.2601    6.2465 C.3       12 UNK        -0.0954 
     70 S70        33.3721   24.6010    5.5801 S.3       12 UNK        -0.2268 
     71 C71        31.8959   23.6684    6.0939 C.3       12 UNK         0.0203 
     72 H72        36.4991   22.3515    2.1571 H         1 UNK         0.0888 
     73 H73        36.4255   23.9287    1.3765 H         1 UNK         0.0888 
     74 H74        36.2777   23.8052    3.1353 H         1 UNK         0.0888 
     75 H75        34.3595   24.7680    0.7915 H         1 UNK         0.3017 
     76 H76        31.9680   24.0862    2.0567 H         1 UNK         0.0873 
     77 H77        32.2223   22.9593   -0.7956 H         1 UNK         0.0745 
     78 H78        32.3387   21.9475    0.6081 H         1 UNK         0.0745 
     79 H79        30.5267   21.0587    2.0332 H         1 UNK         0.0705 
     80 H80        28.8159   21.3550    1.8467 H         1 UNK         0.0705 
     81 H81        31.5229   22.0091    3.9787 H         1 UNK         0.1334 
     82 H82        29.8655   25.4792    5.8683 H         1 UNK         0.1417 
     83 H83        28.0996   23.9338    2.2709 H         1 UNK         0.1562 
     84 H84        28.2067   26.7753    3.5358 H         1 UNK         0.0748 
     85 H85        27.7289   26.3336    5.1570 H         1 UNK         0.0748 
     86 H86        25.6316   27.6774    4.3418 H         1 UNK         0.0940 
     87 H87        24.2688   26.9561    3.5246 H         1 UNK         0.0940 
     88 H88        26.7920   27.9954    2.1497 H         1 UNK         0.0703 
     89 H89        26.2083   26.8519    0.3774 H         1 UNK         0.3081 
     90 H90        23.9322   25.2874   -0.9442 H         1 UNK         0.0719 
     91 H91        23.1609   28.0731   -1.9694 H         1 UNK         0.0809 
     92 H92        22.9831   26.5748   -2.8819 H         1 UNK         0.0809 
     93 H93        22.0529   26.8261   -1.4165 H         1 UNK         0.0809 
     94 H94        25.7911   25.5434   -2.1102 H         1 UNK         0.2990 
     95 H95        27.4330   26.2899   -3.2798 H         1 UNK         0.0690 
     96 H96        28.4102   28.0909   -4.6634 H         1 UNK         0.0788 
     97 H97        27.5951   29.3237   -3.7003 H         1 UNK         0.0788 
     98 H98        26.6586   28.2108   -4.6868 H         1 UNK         0.0788 
     99 H99        29.2367   28.2251   -2.2323 H         1 UNK         0.2993 
    100 H100       30.9576   27.4333   -0.9168 H         1 UNK         0.0949 
    101 H101       30.7340   28.0807    1.5913 H         1 UNK         0.0767 
    102 H102       29.6496   28.9455    0.5103 H         1 UNK         0.0767 
    103 H103       29.0531   27.6123    1.4895 H         1 UNK         0.0767 
    104 H104       30.0953   25.0438    0.5452 H         1 UNK         0.3013 
    105 H105       25.5412   29.4763    0.1269 H         1 UNK         0.3121 
    106 H106       23.9232   31.5815    1.2275 H         1 UNK         0.0774 
    107 H107       24.5516   32.7595   -0.8832 H         1 UNK         0.0815 
    108 H108       25.7728   31.5392   -1.2215 H         1 UNK         0.0815 
    109 H109       24.0652   31.1037   -1.2145 H         1 UNK         0.0815 
    110 H110       27.2932   30.8518    1.4066 H         1 UNK         0.2987 
    111 H111       27.7650   32.9790    3.3054 H         1 UNK         0.0949 
    112 H112       29.6714   32.5085    0.9200 H         1 UNK         0.0806 
    113 H113       28.6917   33.9562    1.1429 H         1 UNK         0.0806 
    114 H114       29.9743   33.5832    2.2800 H         1 UNK         0.0806 
    115 H115       29.9097   32.3325    4.4603 H         1 UNK         0.3010 
    116 H116       29.9295   29.4534    4.9600 H         1 UNK         0.0829 
    117 H117       30.2298   31.1376    6.7966 H         1 UNK         0.0813 
    118 H118       31.5712   30.0152    6.6925 H         1 UNK         0.0813 
    119 H119       31.7551   31.6507    6.0719 H         1 UNK         0.0813 
    120 H120       31.9311   31.7768    3.2189 H         1 UNK         0.3038 
    121 H121       33.7332   31.7040    1.9355 H         1 UNK         0.0769 
    122 H122       32.7380   28.9226    1.0996 H         1 UNK         0.0811 
    123 H123       33.7749   29.9944    0.1670 H         1 UNK         0.0811 
    124 H124       32.1113   30.4451    0.4842 H         1 UNK         0.0811 
    125 H125       34.5996   28.4831    1.6426 H         1 UNK         0.3204 
    126 H126       37.0732   28.7364    3.0160 H         1 UNK         0.0748 
    127 H127       37.2949   26.2993    2.4349 H         1 UNK         0.0771 
    128 H128       35.6033   26.2721    1.9479 H         1 UNK         0.0771 
    129 H129       36.7674   27.2543    1.0591 H         1 UNK         0.0771 
    130 H130       33.9235   27.7591    4.2249 H         1 UNK         0.2980 
    131 H131       35.0759   26.6023    6.6948 H         1 UNK         0.0545 
    132 H132       34.2956   30.4388    7.2448 H         1 UNK         0.3459 
    133 H133       34.6872   29.7801    5.6758 H         1 UNK         0.3459 
    134 H134       32.1948   26.7062    5.6804 H         1 UNK         0.0616 
    135 H135       32.6519   26.1343    7.2684 H         1 UNK         0.0616 
    136 H136       32.1841   22.6290    6.2582 H         1 UNK         0.0634 
    137 H137       31.5286   24.0348    7.0536 H         1 UNK         0.0634 
@<TRIPOS>BOND
     1    1    2 1    
     2    1   72 1    
     3    1   73 1    
     4    1   74 1    
     5    2    3 2    
     6    2    4 am   BACKBONE|DICT|INTERRES
     7    4    5 1    
     8    4   75 1    
     9    5    6 1    
    10    5   35 1    
    11    5   76 1    
    12    6    7 1    
    13    6   77 1    
    14    6   78 1    
    15    7    8 1    
    16    8    9 1    
    17    8   79 1    
    18    8   80 1    
    19    9   10 ar   
    20    9   14 ar   
    21   10   11 ar   
    22   10   81 1    
    23   11   12 ar   
    24   11   71 1    
    25   12   13 ar   
    26   12   82 1    
    27   13   14 ar   
    28   13   15 1    
    29   14   83 1    
    30   15   16 1    
    31   15   84 1    
    32   15   85 1    
    33   16   17 1    
    34   17   18 1    
    35   17   86 1    
    36   17   87 1    
    37   18   19 1    
    38   18   37 1    
    39   18   88 1    
    40   19   20 am   BACKBONE|DICT|INTERRES
    41   19   89 1    
    42   20   21 2    
    43   20   22 1    
    44   22   23 1    
    45   22   24 1    
    46   22   90 1    
    47   23   91 1    
    48   23   92 1    
    49   23   93 1    
    50   24   25 am   BACKBONE|DICT|INTERRES
    51   24   94 1    
    52   25   26 2    
    53   25   27 1    
    54   27   28 1    
    55   27   29 1    
    56   27   95 1    
    57   28   96 1    
    58   28   97 1    
    59   28   98 1    
    60   29   30 am   BACKBONE|DICT|INTERRES
    61   29   99 1    
    62   30   31 2    
    63   30   32 1    
    64   32   33 1    
    65   32   34 1    
    66   32  100 1    
    67   33  101 1    
    68   33  102 1    
    69   33  103 1    
    70   34   35 am   BACKBONE|DICT|INTERRES
    71   34  104 1    
    72   35   36 2    
    73   37   38 2    
    74   37   39 am   BACKBONE|DICT|INTERRES
    75   39   40 1    
    76   39  105 1    
    77   40   41 1    
    78   40   42 1    
    79   40  106 1    
    80   41  107 1    
    81   41  108 1    
    82   41  109 1    
    83   42   43 2    
    84   42   44 am   BACKBONE|DICT|INTERRES
    85   44   45 1    
    86   44  110 1    
    87   45   46 1    
    88   45   47 1    
    89   45  111 1    
    90   46  112 1    
    91   46  113 1    
    92   46  114 1    
    93   47   48 2    
    94   47   49 am   BACKBONE|DICT|INTERRES
    95   49   50 1    
    96   49  115 1    
    97   50   51 1    
    98   50   52 1    
    99   50  116 1    
   100   51  117 1    
   101   51  118 1    
   102   51  119 1    
   103   52   53 2    
   104   52   54 am   BACKBONE|DICT|INTERRES
   105   54   55 1    
   106   54  120 1    
   107   55   56 1    
   108   55   57 1    
   109   55  121 1    
   110   56  122 1    
   111   56  123 1    
   112   56  124 1    
   113   57   58 2    
   114   57   59 am   BACKBONE|DICT|INTERRES
   115   59   60 1    
   116   59  125 1    
   117   60   61 1    
   118   60   62 1    
   119   60  126 1    
   120   61  127 1    
   121   61  128 1    
   122   61  129 1    
   123   62   63 2    
   124   62   64 am   BACKBONE|DICT|INTERRES
   125   64   65 1    
   126   64  130 1    
   127   65   66 1    
   128   65   69 1    
   129   65  131 1    
   130   66   67 am   BACKBONE|DICT|INTERRES
   131   66   68 2    
   132   67  132 1    
   133   67  133 1    
   134   69   70 1    
   135   69  134 1    
   136   69  135 1    
   137   70   71 1    
   138   71  136 1    
   139   71  137 1    
@<TRIPOS>SUBSTRUCTURE
     1 UNK         1 GROUP             0       ****    0 ROOT    
