@<TRIPOS>MOLECULE
3R136
137   139    1
SMALL
USER_CHARGES


@<TRIPOS>ATOM
      1 CA         33.8242   24.8667   -0.2551 C.3       0 UNK        -0.1979 
      2 C          32.4272   25.1676    0.2662 C.2       0 UNK         0.4864 
      3 O          32.0057   26.3232    0.2509 O.2       0 UNK        -0.5359 
      4 N          31.7054   24.1346    0.7226 N.am      1 UNK        -0.4318 
      5 CA         30.3421   24.2377    1.2614 C.3       1 UNK         0.0824 
      6 C6         29.9088   22.9496    2.0079 C.3       12 UNK        -0.0944 
      7 S7         31.0462   22.5133    3.3683 S.3       12 UNK        -0.2672 
      8 C8         30.0260   22.8448    4.8471 C.3       12 UNK         0.0333 
      9 C9         29.5236   24.2833    4.9475 C.ar      12 UNK        -0.0807 
     10 C10        30.3580   25.3635    4.6406 C.ar      12 UNK        -0.0894 
     11 C11        29.8797   26.6732    4.7077 C.ar      12 UNK        -0.0804 
     12 C12        28.5705   26.9079    5.1362 C.ar      12 UNK        -0.0824 
     13 C13        27.7331   25.8412    5.4773 C.ar      12 UNK        -0.0762 
     14 C14        28.2128   24.5318    5.3697 C.ar      12 UNK        -0.0782 
     15 C15        26.3237   26.0982    5.9957 C.3       12 UNK         0.0230 
     16 S16        25.0669   26.0111    4.6792 S.3       12 UNK        -0.2608 
     17 C17        25.3734   27.5631    3.7710 C.3       12 UNK        -0.0989 
     18 CA         25.9094   27.2962    2.3437 C.3       5 UNK         0.0716 
     19 N          24.8825   26.6698    1.4985 N.am      5 UNK        -0.4135 
     20 C          24.9099   26.4909    0.1707 C.2       4 UNK         0.5031 
     21 O          25.7574   26.9586   -0.5947 O.2       4 UNK        -0.5229 
     22 CA         23.7966   25.6200   -0.4208 C.3       4 UNK         0.0329 
     23 CB         22.5820   26.4627   -0.8448 C.3       4 UNK        -0.2001 
     24 N          24.3777   24.9617   -1.5822 N.am      4 UNK        -0.4303 
     25 C          24.1336   23.7204   -2.0080 C.2       3 UNK         0.5044 
     26 O          23.2388   23.0008   -1.5625 O.2       3 UNK        -0.5152 
     27 CA         25.0673   23.1842   -3.1099 C.3       3 UNK         0.0319 
     28 CB         24.4518   23.4206   -4.4987 C.3       3 UNK        -0.2001 
     29 N          26.4131   23.7741   -3.0680 N.am      3 UNK        -0.4354 
     30 C          27.3186   23.5433   -2.1048 C.2       2 UNK         0.4964 
     31 O          27.1283   22.7563   -1.1742 O.2       2 UNK        -0.5047 
     32 CA         28.6733   24.2728   -2.2417 C.3       2 UNK         0.0288 
     33 CB         28.5315   25.7583   -2.6438 C.3       2 UNK        -0.2113 
     34 N          29.5238   24.1363   -1.0513 N.am      2 UNK        -0.4145 
     35 C          29.2998   24.6091    0.1875 C.2       1 UNK         0.5006 
     36 O          28.3396   25.3094    0.5111 O.2       1 UNK        -0.5103 
     37 C          26.5190   28.5835    1.7507 C.2       5 UNK         0.5055 
     38 O          25.8113   29.5804    1.5818 O.2       5 UNK        -0.5220 
     39 N          27.8232   28.5179    1.4600 N.am      6 UNK        -0.4450 
     40 CA         28.6511   29.6154    0.9626 C.3       6 UNK         0.0367 
     41 CB         29.9388   29.0040    0.3806 C.3       6 UNK        -0.1929 
     42 C          28.9678   30.6639    2.0497 C.2       6 UNK         0.5070 
     43 O          28.5314   30.5365    3.1969 O.2       6 UNK        -0.5237 
     44 N          29.7413   31.6878    1.6655 N.am      7 UNK        -0.4739 
     45 CA         30.2776   32.7132    2.5650 C.3       7 UNK         0.0276 
     46 CB         30.9283   33.8222    1.7219 C.3       7 UNK        -0.1927 
     47 C          31.3008   32.1336    3.5584 C.2       7 UNK         0.5013 
     48 O          31.9884   31.1636    3.2305 O.2       7 UNK        -0.5193 
     49 N          31.4201   32.7795    4.7280 N.am      8 UNK        -0.4253 
     50 CA         32.2491   32.3691    5.8717 C.3       8 UNK         0.0242 
     51 CB         32.1480   33.4342    6.9758 C.3       8 UNK        -0.2000 
     52 C          33.7270   32.0737    5.5537 C.2       8 UNK         0.4948 
     53 O          34.3226   31.2105    6.1983 O.2       8 UNK        -0.5275 
     54 N          34.2850   32.7761    4.5591 N.am      9 UNK        -0.4246 
     55 CA         35.6506   32.5863    4.0676 C.3       9 UNK         0.0261 
     56 CB         36.0316   33.7817    3.1786 C.3       9 UNK        -0.1959 
     57 C          35.8672   31.2633    3.3069 C.2       9 UNK         0.5033 
     58 O          37.0115   30.8148    3.2209 O.2       9 UNK        -0.5390 
     59 N          34.7979   30.6719    2.7538 N.am      10 UNK        -0.4215 
     60 CA         34.8596   29.4335    1.9731 C.3       10 UNK         0.0240 
     61 CB         33.7627   29.4642    0.8960 C.3       10 UNK        -0.1982 
     62 C          34.7197   28.1692    2.8369 C.2       10 UNK         0.4970 
     63 O          35.0942   27.0926    2.3713 O.2       10 UNK        -0.4916 
     64 N          34.1669   28.3011    4.0499 N.am      11 UNK        -0.4279 
     65 CA         33.8822   27.1836    4.9616 C.3       11 UNK         0.1003 
     66 C          35.1623   26.4749    5.4848 C.2       11 UNK         0.5709 
     67 N          35.0858   25.1793    5.7594 N.am      11 UNK        -0.7358 
     68 O          36.2068   27.0926    5.6849 O.2       11 UNK        -0.4999 
     69 C69        32.9709   27.6098    6.1459 C.3       12 UNK        -0.0954 
     70 S70        31.5285   28.6517    5.7276 S.3       12 UNK        -0.2268 
     71 C71        30.7637   27.8367    4.2935 C.3       12 UNK         0.0203 
     72 H72        34.0772   23.8110   -0.1604 H         1 UNK         0.0888 
     73 H73        33.8986   25.1420   -1.3067 H         1 UNK         0.0888 
     74 H74        34.5633   25.4429    0.3001 H         1 UNK         0.0888 
     75 H75        32.1140   23.2109    0.7437 H         1 UNK         0.3017 
     76 H76        30.3427   25.0626    1.9745 H         1 UNK         0.0873 
     77 H77        29.8666   22.1036    1.3192 H         1 UNK         0.0745 
     78 H78        28.8986   23.0610    2.4076 H         1 UNK         0.0745 
     79 H79        30.6167   22.6203    5.7360 H         1 UNK         0.0705 
     80 H80        29.1885   22.1453    4.8481 H         1 UNK         0.0705 
     81 H81        31.3730   25.1813    4.3185 H         1 UNK         0.1334 
     82 H82        28.2124   27.9258    5.2099 H         1 UNK         0.1417 
     83 H83        27.5635   23.7056    5.6264 H         1 UNK         0.1562 
     84 H84        26.2685   27.0673    6.4943 H         1 UNK         0.0748 
     85 H85        26.0776   25.3579    6.7585 H         1 UNK         0.0748 
     86 H86        26.0658   28.1829    4.3427 H         1 UNK         0.0940 
     87 H87        24.4433   28.1332    3.7282 H         1 UNK         0.0940 
     88 H88        26.7141   26.5617    2.4255 H         1 UNK         0.0703 
     89 H89        24.1206   26.2520    2.0119 H         1 UNK         0.3081 
     90 H90        23.4946   24.8725    0.3163 H         1 UNK         0.0719 
     91 H91        22.1376   26.9675    0.0138 H         1 UNK         0.0809 
     92 H92        22.8580   27.2299   -1.5695 H         1 UNK         0.0809 
     93 H93        21.8071   25.8413   -1.2940 H         1 UNK         0.0809 
     94 H94        25.1721   25.4612   -1.9643 H         1 UNK         0.2990 
     95 H95        25.1657   22.1069   -2.9599 H         1 UNK         0.0690 
     96 H96        24.3418   24.4836   -4.7173 H         1 UNK         0.0788 
     97 H97        23.4605   22.9700   -4.5671 H         1 UNK         0.0788 
     98 H98        25.0623   22.9759   -5.2850 H         1 UNK         0.0788 
     99 H99        26.6510   24.4126   -3.8135 H         1 UNK         0.2993 
    100 H100       29.2061   23.7627   -3.0458 H         1 UNK         0.0949 
    101 H101       27.9236   26.3158   -1.9317 H         1 UNK         0.0767 
    102 H102       29.5058   26.2451   -2.6932 H         1 UNK         0.0767 
    103 H103       28.0725   25.8706   -3.6261 H         1 UNK         0.0767 
    104 H104       30.3436   23.5598   -1.1754 H         1 UNK         0.3013 
    105 H105       28.2934   27.6336    1.5954 H         1 UNK         0.3121 
    106 H106       28.1059   30.1179    0.1610 H         1 UNK         0.0774 
    107 H107       30.5629   29.7556   -0.1032 H         1 UNK         0.0815 
    108 H108       30.5415   28.5289    1.1557 H         1 UNK         0.0815 
    109 H109       29.7153   28.2464   -0.3716 H         1 UNK         0.0815 
    110 H110       30.0793   31.7074    0.7147 H         1 UNK         0.2987 
    111 H111       29.4436   33.1369    3.1291 H         1 UNK         0.0949 
    112 H112       30.2127   34.2672    1.0301 H         1 UNK         0.0806 
    113 H113       31.3061   34.6272    2.3537 H         1 UNK         0.0806 
    114 H114       31.7694   33.4445    1.1385 H         1 UNK         0.0806 
    115 H115       30.8310   33.5851    4.8834 H         1 UNK         0.3010 
    116 H116       31.8162   31.4474    6.2607 H         1 UNK         0.0829 
    117 H117       31.1187   33.5652    7.3102 H         1 UNK         0.0813 
    118 H118       32.7344   33.1474    7.8502 H         1 UNK         0.0813 
    119 H119       32.5192   34.4028    6.6383 H         1 UNK         0.0813 
    120 H120       33.7186   33.4642    4.0850 H         1 UNK         0.3038 
    121 H121       36.3199   32.5767    4.9307 H         1 UNK         0.0769 
    122 H122       37.0577   33.6896    2.8195 H         1 UNK         0.0811 
    123 H123       35.9664   34.7219    3.7266 H         1 UNK         0.0811 
    124 H124       35.3859   33.8559    2.3026 H         1 UNK         0.0811 
    125 H125       33.8693   31.0610    2.9060 H         1 UNK         0.3204 
    126 H126       35.8236   29.3750    1.4630 H         1 UNK         0.0748 
    127 H127       33.8125   28.5780    0.2614 H         1 UNK         0.0771 
    128 H128       32.7672   29.4869    1.3385 H         1 UNK         0.0771 
    129 H129       33.8631   30.3348    0.2480 H         1 UNK         0.0771 
    130 H130       33.9018   29.2190    4.3764 H         1 UNK         0.2980 
    131 H131       33.3407   26.4419    4.3736 H         1 UNK         0.0545 
    132 H132       35.9026   24.7076    6.1150 H         1 UNK         0.3459 
    133 H133       34.2333   24.6617    5.6158 H         1 UNK         0.3459 
    134 H134       32.6006   26.7258    6.6680 H         1 UNK         0.0616 
    135 H135       33.5526   28.1714    6.8797 H         1 UNK         0.0616 
    136 H136       30.1543   28.5761    3.7772 H         1 UNK         0.0634 
    137 H137       31.5111   27.5256    3.5645 H         1 UNK         0.0634 
@<TRIPOS>BOND
     1    1    2 1    
     2    1   72 1    
     3    1   73 1    
     4    1   74 1    
     5    2    3 2    
     6    2    4 am   BACKBONE|DICT|INTERRES
     7    4    5 1    
     8    4   75 1    
     9    5    6 1    
    10    5   35 1    
    11    5   76 1    
    12    6    7 1    
    13    6   77 1    
    14    6   78 1    
    15    7    8 1    
    16    8    9 1    
    17    8   79 1    
    18    8   80 1    
    19    9   10 ar   
    20    9   14 ar   
    21   10   11 ar   
    22   10   81 1    
    23   11   12 ar   
    24   11   71 1    
    25   12   13 ar   
    26   12   82 1    
    27   13   14 ar   
    28   13   15 1    
    29   14   83 1    
    30   15   16 1    
    31   15   84 1    
    32   15   85 1    
    33   16   17 1    
    34   17   18 1    
    35   17   86 1    
    36   17   87 1    
    37   18   19 1    
    38   18   37 1    
    39   18   88 1    
    40   19   20 am   BACKBONE|DICT|INTERRES
    41   19   89 1    
    42   20   21 2    
    43   20   22 1    
    44   22   23 1    
    45   22   24 1    
    46   22   90 1    
    47   23   91 1    
    48   23   92 1    
    49   23   93 1    
    50   24   25 am   BACKBONE|DICT|INTERRES
    51   24   94 1    
    52   25   26 2    
    53   25   27 1    
    54   27   28 1    
    55   27   29 1    
    56   27   95 1    
    57   28   96 1    
    58   28   97 1    
    59   28   98 1    
    60   29   30 am   BACKBONE|DICT|INTERRES
    61   29   99 1    
    62   30   31 2    
    63   30   32 1    
    64   32   33 1    
    65   32   34 1    
    66   32  100 1    
    67   33  101 1    
    68   33  102 1    
    69   33  103 1    
    70   34   35 am   BACKBONE|DICT|INTERRES
    71   34  104 1    
    72   35   36 2    
    73   37   38 2    
    74   37   39 am   BACKBONE|DICT|INTERRES
    75   39   40 1    
    76   39  105 1    
    77   40   41 1    
    78   40   42 1    
    79   40  106 1    
    80   41  107 1    
    81   41  108 1    
    82   41  109 1    
    83   42   43 2    
    84   42   44 am   BACKBONE|DICT|INTERRES
    85   44   45 1    
    86   44  110 1    
    87   45   46 1    
    88   45   47 1    
    89   45  111 1    
    90   46  112 1    
    91   46  113 1    
    92   46  114 1    
    93   47   48 2    
    94   47   49 am   BACKBONE|DICT|INTERRES
    95   49   50 1    
    96   49  115 1    
    97   50   51 1    
    98   50   52 1    
    99   50  116 1    
   100   51  117 1    
   101   51  118 1    
   102   51  119 1    
   103   52   53 2    
   104   52   54 am   BACKBONE|DICT|INTERRES
   105   54   55 1    
   106   54  120 1    
   107   55   56 1    
   108   55   57 1    
   109   55  121 1    
   110   56  122 1    
   111   56  123 1    
   112   56  124 1    
   113   57   58 2    
   114   57   59 am   BACKBONE|DICT|INTERRES
   115   59   60 1    
   116   59  125 1    
   117   60   61 1    
   118   60   62 1    
   119   60  126 1    
   120   61  127 1    
   121   61  128 1    
   122   61  129 1    
   123   62   63 2    
   124   62   64 am   BACKBONE|DICT|INTERRES
   125   64   65 1    
   126   64  130 1    
   127   65   66 1    
   128   65   69 1    
   129   65  131 1    
   130   66   67 am   BACKBONE|DICT|INTERRES
   131   66   68 2    
   132   67  132 1    
   133   67  133 1    
   134   69   70 1    
   135   69  134 1    
   136   69  135 1    
   137   70   71 1    
   138   71  136 1    
   139   71  137 1    
@<TRIPOS>SUBSTRUCTURE
     1 UNK         1 GROUP             0       ****    0 ROOT    
