@<TRIPOS>MOLECULE
3R136
137   139    1
SMALL
USER_CHARGES


@<TRIPOS>ATOM
      1 CA         28.5072   20.5127    4.1682 C.3       0 UNK        -0.1979 
      2 C          28.2212   20.2167    2.7031 C.2       0 UNK         0.4864 
      3 O          28.5864   19.1482    2.2108 O.2       0 UNK        -0.5359 
      4 N          27.5769   21.1556    2.0047 N.am      1 UNK        -0.4318 
      5 CA         27.2219   21.0744    0.5891 C.3       1 UNK         0.0824 
      6 C6         28.4215   21.3391   -0.3660 C.3       12 UNK        -0.0944 
      7 S7         29.3747   22.8545    0.0157 S.3       12 UNK        -0.2672 
      8 C8         30.9027   22.1249    0.6852 C.3       12 UNK         0.0333 
      9 C9         31.6641   23.1080    1.5603 C.ar      12 UNK        -0.0807 
     10 C10        32.7474   23.8305    1.0504 C.ar      12 UNK        -0.0894 
     11 C11        33.4773   24.7051    1.8649 C.ar      12 UNK        -0.0804 
     12 C12        33.1070   24.8390    3.2108 C.ar      12 UNK        -0.0824 
     13 C13        31.9976   24.1584    3.7189 C.ar      12 UNK        -0.0762 
     14 C14        31.2891   23.2827    2.8941 C.ar      12 UNK        -0.0782 
     15 C15        31.5350   24.4058    5.1463 C.3       12 UNK         0.0230 
     16 S16        30.0339   25.4398    5.1823 S.3       12 UNK        -0.2608 
     17 C17        30.6404   27.0211    4.4928 C.3       12 UNK        -0.0989 
     18 CA         30.3745   27.1752    2.9696 C.3       5 UNK         0.0716 
     19 N          28.9556   26.9794    2.6454 N.am      5 UNK        -0.4135 
     20 C          28.4687   26.6221    1.4514 C.2       4 UNK         0.5031 
     21 O          29.1756   26.4927    0.4484 O.2       4 UNK        -0.5229 
     22 CA         26.9507   26.3682    1.3890 C.3       4 UNK         0.0329 
     23 CB         26.1344   27.6240    1.7666 C.3       4 UNK        -0.2001 
     24 N          26.5258   25.8136    0.0976 N.am      4 UNK        -0.4303 
     25 C          26.5004   26.4182   -1.1028 C.2       3 UNK         0.5044 
     26 O          26.7188   27.6176   -1.2810 O.2       3 UNK        -0.5152 
     27 CA         26.1935   25.5399   -2.3338 C.3       3 UNK         0.0319 
     28 CB         27.4638   25.3474   -3.1796 C.3       3 UNK        -0.2001 
     29 N          25.6538   24.2207   -1.9984 N.am      3 UNK        -0.4354 
     30 C          24.4112   23.9853   -1.5548 C.2       2 UNK         0.4964 
     31 O          23.5418   24.8521   -1.4614 O.2       2 UNK        -0.5047 
     32 CA         24.0887   22.5432   -1.1191 C.3       2 UNK         0.0288 
     33 CB         23.3435   21.7981   -2.2388 C.3       2 UNK        -0.2113 
     34 N          25.2633   21.7574   -0.7154 N.am      2 UNK        -0.4145 
     35 C          26.0482   22.0338    0.3367 C.2       1 UNK         0.5006 
     36 O          25.8859   23.0105    1.0752 O.2       1 UNK        -0.5103 
     37 C          30.9391   28.5017    2.4043 C.2       5 UNK         0.5055 
     38 O          31.5747   29.2598    3.1387 O.2       5 UNK        -0.5220 
     39 N          30.7013   28.7592    1.1115 N.am      6 UNK        -0.4450 
     40 CA         30.9686   29.9999    0.3757 C.3       6 UNK         0.0367 
     41 CB         32.4797   30.3268    0.3661 C.3       6 UNK        -0.1929 
     42 C          30.1084   31.1789    0.8776 C.2       6 UNK         0.5070 
     43 O          29.2102   30.9982    1.7058 O.2       6 UNK        -0.5237 
     44 N          30.3763   32.3760    0.3388 N.am      7 UNK        -0.4739 
     45 CA         29.7136   33.6270    0.7159 C.3       7 UNK         0.0276 
     46 CB         30.2157   34.7627   -0.1897 C.3       7 UNK        -0.1927 
     47 C          29.9613   33.9655    2.1944 C.2       7 UNK         0.5013 
     48 O          31.1056   33.8870    2.6453 O.2       7 UNK        -0.5193 
     49 N          28.8837   34.2969    2.9207 N.am      8 UNK        -0.4253 
     50 CA         28.8522   34.6327    4.3533 C.3       8 UNK         0.0242 
     51 CB         29.5327   35.9978    4.5943 C.3       8 UNK        -0.2000 
     52 C          29.4107   33.5322    5.2851 C.2       8 UNK         0.4948 
     53 O          29.8151   33.8430    6.4068 O.2       8 UNK        -0.5275 
     54 N          29.4313   32.2765    4.8071 N.am      9 UNK        -0.4246 
     55 CA         30.0269   31.0951    5.4433 C.3       9 UNK         0.0261 
     56 CB         29.2433   30.6924    6.7110 C.3       9 UNK        -0.1959 
     57 C          31.5467   31.2399    5.6899 C.2       9 UNK         0.5033 
     58 O          32.0484   30.7682    6.7124 O.2       9 UNK        -0.5390 
     59 N          32.2508   31.9127    4.7660 N.am      10 UNK        -0.4215 
     60 CA         33.6777   32.2293    4.8689 C.3       10 UNK         0.0240 
     61 CB         34.0433   33.2758    3.8039 C.3       10 UNK        -0.1982 
     62 C          34.6300   31.0232    4.7732 C.2       10 UNK         0.4970 
     63 O          35.7403   31.1161    5.2998 O.2       10 UNK        -0.4916 
     64 N          34.2242   29.9393    4.0976 N.am      11 UNK        -0.4279 
     65 CA         35.0327   28.7197    3.9602 C.3       11 UNK         0.1003 
     66 C          35.0350   27.9039    5.2829 C.2       11 UNK         0.5709 
     67 N          36.2043   27.5846    5.8214 N.am      11 UNK        -0.7358 
     68 O          33.9880   27.5301    5.8045 O.2       11 UNK        -0.4999 
     69 C69        34.5753   27.8892    2.7333 C.3       12 UNK        -0.0954 
     70 S70        35.6756   26.4833    2.3500 S.3       12 UNK        -0.2268 
     71 C71        34.6304   25.4885    1.2268 C.3       12 UNK         0.0203 
     72 H72        28.1801   21.5127    4.4535 H         1 UNK         0.0888 
     73 H73        27.9926   19.7926    4.8037 H         1 UNK         0.0888 
     74 H74        29.5765   20.4377    4.3644 H         1 UNK         0.0888 
     75 H75        27.2582   22.0097    2.4462 H         1 UNK         0.3017 
     76 H76        26.8469   20.0660    0.3992 H         1 UNK         0.0873 
     77 H77        28.0853   21.3996   -1.4025 H         1 UNK         0.0745 
     78 H78        29.0926   20.4794   -0.3409 H         1 UNK         0.0745 
     79 H79        30.6635   21.2394    1.2754 H         1 UNK         0.0705 
     80 H80        31.5267   21.7810   -0.1411 H         1 UNK         0.0705 
     81 H81        33.0248   23.7101    0.0118 H         1 UNK         0.1334 
     82 H82        33.6494   25.4982    3.8713 H         1 UNK         0.1417 
     83 H83        30.4322   22.7523    3.2856 H         1 UNK         0.1562 
     84 H84        32.3193   24.8831    5.7367 H         1 UNK         0.0748 
     85 H85        31.3224   23.4519    5.6309 H         1 UNK         0.0748 
     86 H86        31.7061   27.1090    4.7036 H         1 UNK         0.0940 
     87 H87        30.1624   27.8310    5.0463 H         1 UNK         0.0940 
     88 H88        30.9285   26.3870    2.4588 H         1 UNK         0.0703 
     89 H89        28.3171   27.0735    3.4210 H         1 UNK         0.3081 
     90 H90        26.7324   25.5909    2.1231 H         1 UNK         0.0719 
     91 H91        26.4169   28.4902    1.1672 H         1 UNK         0.0809 
     92 H92        25.0656   27.4573    1.6319 H         1 UNK         0.0809 
     93 H93        26.2860   27.8956    2.8115 H         1 UNK         0.0809 
     94 H94        26.3323   24.8190    0.1229 H         1 UNK         0.2990 
     95 H95        25.4552   26.0707   -2.9385 H         1 UNK         0.0690 
     96 H96        27.2575   24.7778   -4.0859 H         1 UNK         0.0788 
     97 H97        28.2429   24.8259   -2.6212 H         1 UNK         0.0788 
     98 H98        27.8758   26.3089   -3.4896 H         1 UNK         0.0788 
     99 H99        26.2958   23.4439   -2.0537 H         1 UNK         0.2993 
    100 H100       23.4258   22.6131   -0.2537 H         1 UNK         0.0949 
    101 H101       23.0214   20.8089   -1.9123 H         1 UNK         0.0767 
    102 H102       22.4483   22.3432   -2.5423 H         1 UNK         0.0767 
    103 H103       23.9659   21.6745   -3.1261 H         1 UNK         0.0767 
    104 H104       25.4655   20.9386   -1.2718 H         1 UNK         0.3013 
    105 H105       30.1604   28.0557    0.6114 H         1 UNK         0.3121 
    106 H106       30.6589   29.8063   -0.6523 H         1 UNK         0.0774 
    107 H107       32.7158   31.1007   -0.3644 H         1 UNK         0.0815 
    108 H108       32.8279   30.6823    1.3365 H         1 UNK         0.0815 
    109 H109       33.0702   29.4510    0.0982 H         1 UNK         0.0815 
    110 H110       31.1365   32.4513   -0.3208 H         1 UNK         0.2987 
    111 H111       28.6414   33.4988    0.5516 H         1 UNK         0.0949 
    112 H112       29.7218   35.7041    0.0554 H         1 UNK         0.0806 
    113 H113       31.2895   34.9212   -0.0800 H         1 UNK         0.0806 
    114 H114       30.0113   34.5551   -1.2402 H         1 UNK         0.0806 
    115 H115       27.9846   34.3049    2.4580 H         1 UNK         0.3010 
    116 H116       27.7990   34.7379    4.6179 H         1 UNK         0.0829 
    117 H117       29.1176   36.7691    3.9457 H         1 UNK         0.0813 
    118 H118       29.3911   36.3332    5.6225 H         1 UNK         0.0813 
    119 H119       30.6072   35.9496    4.4135 H         1 UNK         0.0813 
    120 H120       29.0925   32.1287    3.8640 H         1 UNK         0.3038 
    121 H121       29.9042   30.2858    4.7259 H         1 UNK         0.0769 
    122 H122       29.5959   29.7359    7.0990 H         1 UNK         0.0811 
    123 H123       28.1791   30.5834    6.5026 H         1 UNK         0.0811 
    124 H124       29.3569   31.4270    7.5086 H         1 UNK         0.0811 
    125 H125       31.7589   32.3059    3.9707 H         1 UNK         0.3204 
    126 H126       33.8390   32.6818    5.8495 H         1 UNK         0.0748 
    127 H127       35.1022   33.5339    3.8504 H         1 UNK         0.0771 
    128 H128       33.8379   32.9130    2.7958 H         1 UNK         0.0771 
    129 H129       33.4818   34.1992    3.9484 H         1 UNK         0.0771 
    130 H130       33.2683   29.8868    3.7536 H         1 UNK         0.2980 
    131 H131       36.0580   29.0357    3.7553 H         1 UNK         0.0545 
    132 H132       37.0699   27.8776    5.3961 H         1 UNK         0.3459 
    133 H133       36.2203   27.0454    6.6725 H         1 UNK         0.3459 
    134 H134       33.5607   27.5260    2.8783 H         1 UNK         0.0616 
    135 H135       34.5432   28.5269    1.8493 H         1 UNK         0.0616 
    136 H136       35.2841   24.7815    0.7140 H         1 UNK         0.0634 
    137 H137       34.2258   26.1469    0.4567 H         1 UNK         0.0634 
@<TRIPOS>BOND
     1    1    2 1    
     2    1   72 1    
     3    1   73 1    
     4    1   74 1    
     5    2    3 2    
     6    2    4 am   BACKBONE|DICT|INTERRES
     7    4    5 1    
     8    4   75 1    
     9    5    6 1    
    10    5   35 1    
    11    5   76 1    
    12    6    7 1    
    13    6   77 1    
    14    6   78 1    
    15    7    8 1    
    16    8    9 1    
    17    8   79 1    
    18    8   80 1    
    19    9   10 ar   
    20    9   14 ar   
    21   10   11 ar   
    22   10   81 1    
    23   11   12 ar   
    24   11   71 1    
    25   12   13 ar   
    26   12   82 1    
    27   13   14 ar   
    28   13   15 1    
    29   14   83 1    
    30   15   16 1    
    31   15   84 1    
    32   15   85 1    
    33   16   17 1    
    34   17   18 1    
    35   17   86 1    
    36   17   87 1    
    37   18   19 1    
    38   18   37 1    
    39   18   88 1    
    40   19   20 am   BACKBONE|DICT|INTERRES
    41   19   89 1    
    42   20   21 2    
    43   20   22 1    
    44   22   23 1    
    45   22   24 1    
    46   22   90 1    
    47   23   91 1    
    48   23   92 1    
    49   23   93 1    
    50   24   25 am   BACKBONE|DICT|INTERRES
    51   24   94 1    
    52   25   26 2    
    53   25   27 1    
    54   27   28 1    
    55   27   29 1    
    56   27   95 1    
    57   28   96 1    
    58   28   97 1    
    59   28   98 1    
    60   29   30 am   BACKBONE|DICT|INTERRES
    61   29   99 1    
    62   30   31 2    
    63   30   32 1    
    64   32   33 1    
    65   32   34 1    
    66   32  100 1    
    67   33  101 1    
    68   33  102 1    
    69   33  103 1    
    70   34   35 am   BACKBONE|DICT|INTERRES
    71   34  104 1    
    72   35   36 2    
    73   37   38 2    
    74   37   39 am   BACKBONE|DICT|INTERRES
    75   39   40 1    
    76   39  105 1    
    77   40   41 1    
    78   40   42 1    
    79   40  106 1    
    80   41  107 1    
    81   41  108 1    
    82   41  109 1    
    83   42   43 2    
    84   42   44 am   BACKBONE|DICT|INTERRES
    85   44   45 1    
    86   44  110 1    
    87   45   46 1    
    88   45   47 1    
    89   45  111 1    
    90   46  112 1    
    91   46  113 1    
    92   46  114 1    
    93   47   48 2    
    94   47   49 am   BACKBONE|DICT|INTERRES
    95   49   50 1    
    96   49  115 1    
    97   50   51 1    
    98   50   52 1    
    99   50  116 1    
   100   51  117 1    
   101   51  118 1    
   102   51  119 1    
   103   52   53 2    
   104   52   54 am   BACKBONE|DICT|INTERRES
   105   54   55 1    
   106   54  120 1    
   107   55   56 1    
   108   55   57 1    
   109   55  121 1    
   110   56  122 1    
   111   56  123 1    
   112   56  124 1    
   113   57   58 2    
   114   57   59 am   BACKBONE|DICT|INTERRES
   115   59   60 1    
   116   59  125 1    
   117   60   61 1    
   118   60   62 1    
   119   60  126 1    
   120   61  127 1    
   121   61  128 1    
   122   61  129 1    
   123   62   63 2    
   124   62   64 am   BACKBONE|DICT|INTERRES
   125   64   65 1    
   126   64  130 1    
   127   65   66 1    
   128   65   69 1    
   129   65  131 1    
   130   66   67 am   BACKBONE|DICT|INTERRES
   131   66   68 2    
   132   67  132 1    
   133   67  133 1    
   134   69   70 1    
   135   69  134 1    
   136   69  135 1    
   137   70   71 1    
   138   71  136 1    
   139   71  137 1    
@<TRIPOS>SUBSTRUCTURE
     1 UNK         1 GROUP             0       ****    0 ROOT    
