@<TRIPOS>MOLECULE
3R136
137   139    1
SMALL
USER_CHARGES


@<TRIPOS>ATOM
      1 CA         35.6761   25.9404    1.3571 C.3       0 UNK        -0.1979 
      2 C          34.4787   25.0051    1.4394 C.2       0 UNK         0.4864 
      3 O          34.3071   24.3222    2.4489 O.2       0 UNK        -0.5359 
      4 N          33.6544   24.9748    0.3881 N.am      1 UNK        -0.4318 
      5 CA         32.4084   24.2228    0.2982 C.3       1 UNK         0.0824 
      6 C6         32.6515   22.7080    0.0712 C.3       12 UNK        -0.0944 
      7 S7         31.1254   21.7035    0.0721 S.3       12 UNK        -0.2672 
      8 C8         31.1072   21.0320    1.7624 C.3       12 UNK         0.0333 
      9 C9         30.4542   21.9888    2.7494 C.ar      12 UNK        -0.0807 
     10 C10        31.2264   22.9084    3.4648 C.ar      12 UNK        -0.0894 
     11 C11        30.6339   23.7530    4.4082 C.ar      12 UNK        -0.0804 
     12 C12        29.2598   23.6517    4.6528 C.ar      12 UNK        -0.0824 
     13 C13        28.4732   22.7435    3.9364 C.ar      12 UNK        -0.0762 
     14 C14        29.0766   21.9226    2.9787 C.ar      12 UNK        -0.0782 
     15 C15        26.9831   22.6068    4.2243 C.3       12 UNK         0.0230 
     16 S16        25.9825   23.8470    3.3400 S.3       12 UNK        -0.2608 
     17 C17        26.1128   25.2915    4.4483 C.3       12 UNK        -0.0989 
     18 CA         27.0310   26.4039    3.8700 C.3       5 UNK         0.0716 
     19 N          26.5341   26.9638    2.6046 N.am      5 UNK        -0.4135 
     20 C          25.4015   27.6550    2.4091 C.2       4 UNK         0.5031 
     21 O          24.6170   27.9625    3.3064 O.2       4 UNK        -0.5229 
     22 CA         25.1090   28.1178    0.9715 C.3       4 UNK         0.0329 
     23 CB         25.8175   29.4519    0.6838 C.3       4 UNK        -0.2001 
     24 N          25.4916   27.1326   -0.0424 N.am      4 UNK        -0.4303 
     25 C          24.8773   25.9551   -0.2318 C.2       3 UNK         0.5044 
     26 O          23.8838   25.5941    0.4003 O.2       3 UNK        -0.5152 
     27 CA         25.4448   25.0259   -1.3241 C.3       3 UNK         0.0319 
     28 CB         24.5577   25.0698   -2.5795 C.3       3 UNK        -0.2001 
     29 N          26.8318   25.3139   -1.7101 N.am      3 UNK        -0.4354 
     30 C          27.8928   25.1457   -0.9104 C.2       2 UNK         0.4964 
     31 O          27.8144   24.7498    0.2549 O.2       2 UNK        -0.5047 
     32 CA         29.2610   25.5005   -1.5067 C.3       2 UNK         0.0288 
     33 CB         29.3853   27.0135   -1.7760 C.3       2 UNK        -0.2113 
     34 N          30.2794   25.0547   -0.5633 N.am      2 UNK        -0.4145 
     35 C          31.5757   24.8652   -0.8221 C.2       1 UNK         0.5006 
     36 O          32.1169   25.1435   -1.8964 O.2       1 UNK        -0.5103 
     37 C          27.4012   27.4615    4.9402 C.2       5 UNK         0.5055 
     38 O          27.6631   27.0801    6.0829 O.2       5 UNK        -0.5220 
     39 N          27.4314   28.7553    4.5861 N.am      6 UNK        -0.4450 
     40 CA         27.7042   29.8548    5.5186 C.3       6 UNK         0.0367 
     41 CB         26.4491   30.1354    6.3720 C.3       6 UNK        -0.1929 
     42 C          28.1999   31.1461    4.8441 C.2       6 UNK         0.5070 
     43 O          28.4599   32.1161    5.5584 O.2       6 UNK        -0.5237 
     44 N          28.3114   31.1832    3.5072 N.am      7 UNK        -0.4739 
     45 CA         28.7314   32.3787    2.7710 C.3       7 UNK         0.0276 
     46 CB         28.1405   32.3620    1.3490 C.3       7 UNK        -0.1927 
     47 C          30.2636   32.5115    2.7789 C.2       7 UNK         0.5013 
     48 O          30.9279   32.0060    1.8699 O.2       7 UNK        -0.5193 
     49 N          30.7757   33.1777    3.8238 N.am      8 UNK        -0.4253 
     50 CA         32.1814   33.5176    4.0783 C.3       8 UNK         0.0242 
     51 CB         32.6931   34.4991    2.9980 C.3       8 UNK        -0.2000 
     52 C          33.0892   32.2818    4.2462 C.2       8 UNK         0.4948 
     53 O          32.5981   31.1736    4.4725 O.2       8 UNK        -0.5275 
     54 N          34.4093   32.4879    4.1251 N.am      9 UNK        -0.4246 
     55 CA         35.4419   31.4443    4.1902 C.3       9 UNK         0.0261 
     56 CB         36.8300   32.1054    4.1864 C.3       9 UNK        -0.1959 
     57 C          35.3417   30.3946    3.0659 C.2       9 UNK         0.5033 
     58 O          35.8522   29.2859    3.2271 O.2       9 UNK        -0.5390 
     59 N          34.6640   30.7501    1.9657 N.am      10 UNK        -0.4215 
     60 CA         34.2896   29.8512    0.8746 C.3       10 UNK         0.0240 
     61 CB         33.8650   30.6962   -0.3382 C.3       10 UNK        -0.1982 
     62 C          33.1714   28.8595    1.2509 C.2       10 UNK         0.4970 
     63 O          32.9611   27.9088    0.4997 O.2       10 UNK        -0.4916 
     64 N          32.4750   29.0922    2.3742 N.am      11 UNK        -0.4279 
     65 CA         31.3474   28.2927    2.8730 C.3       11 UNK         0.1003 
     66 C          30.1278   28.2641    1.9060 C.2       11 UNK         0.5709 
     67 N          29.8793   29.3340    1.1624 N.am      11 UNK        -0.7358 
     68 O          29.3884   27.2889    1.8288 O.2       11 UNK        -0.4999 
     69 C69        31.7924   26.8914    3.3910 C.3       12 UNK        -0.0954 
     70 S70        30.9775   26.4658    4.9626 S.3       12 UNK        -0.2268 
     71 C71        31.4866   24.7342    5.2031 C.3       12 UNK         0.0203 
     72 H72        36.6032   25.3749    1.4452 H         1 UNK         0.0888 
     73 H73        35.6991   26.4899    0.4161 H         1 UNK         0.0888 
     74 H74        35.6387   26.6658    2.1697 H         1 UNK         0.0888 
     75 H75        33.8082   25.5967   -0.3967 H         1 UNK         0.3017 
     76 H76        31.8702   24.3562    1.2362 H         1 UNK         0.0873 
     77 H77        33.1610   22.5477   -0.8809 H         1 UNK         0.0745 
     78 H78        33.3287   22.3189    0.8322 H         1 UNK         0.0745 
     79 H79        32.1190   20.7795    2.0827 H         1 UNK         0.0705 
     80 H80        30.5571   20.0897    1.7515 H         1 UNK         0.0705 
     81 H81        32.2928   22.9568    3.2939 H         1 UNK         0.1334 
     82 H82        28.8059   24.2842    5.4032 H         1 UNK         0.1417 
     83 H83        28.4763   21.2125    2.4259 H         1 UNK         0.1562 
     84 H84        26.7983   22.6647    5.2978 H         1 UNK         0.0748 
     85 H85        26.6393   21.6165    3.9218 H         1 UNK         0.0748 
     86 H86        26.4680   24.9494    5.4211 H         1 UNK         0.0940 
     87 H87        25.1091   25.6788    4.6294 H         1 UNK         0.0940 
     88 H88        27.9813   25.9351    3.6130 H         1 UNK         0.0703 
     89 H89        27.1321   26.7718    1.8097 H         1 UNK         0.3081 
     90 H90        24.0320   28.2814    0.8913 H         1 UNK         0.0719 
     91 H91        26.9020   29.3505    0.7160 H         1 UNK         0.0809 
     92 H92        25.5464   29.8408   -0.2979 H         1 UNK         0.0809 
     93 H93        25.5360   30.2092    1.4171 H         1 UNK         0.0809 
     94 H94        26.2866   27.3513   -0.6236 H         1 UNK         0.2990 
     95 H95        25.4165   24.0103   -0.9231 H         1 UNK         0.0690 
     96 H96        24.8895   24.3486   -3.3267 H         1 UNK         0.0788 
     97 H97        24.5588   26.0584   -3.0405 H         1 UNK         0.0788 
     98 H98        23.5226   24.8258   -2.3355 H         1 UNK         0.0788 
     99 H99        26.9783   25.6465   -2.6528 H         1 UNK         0.2993 
    100 H100       29.3851   24.9463   -2.4394 H         1 UNK         0.0949 
    101 H101       29.1676   27.5954   -0.8828 H         1 UNK         0.0767 
    102 H102       30.3866   27.2838   -2.1115 H         1 UNK         0.0767 
    103 H103       28.6908   27.3354   -2.5524 H         1 UNK         0.0767 
    104 H104       29.8910   24.7824    0.3340 H         1 UNK         0.3013 
    105 H105       27.1499   28.9982    3.6496 H         1 UNK         0.3121 
    106 H106       28.5125   29.5462    6.1854 H         1 UNK         0.0774 
    107 H107       26.6223   30.9470    7.0800 H         1 UNK         0.0815 
    108 H108       25.5993   30.4191    5.7501 H         1 UNK         0.0815 
    109 H109       26.1578   29.2634    6.9573 H         1 UNK         0.0815 
    110 H110       28.1900   30.3455    2.9623 H         1 UNK         0.2987 
    111 H111       28.3182   33.2636    3.2618 H         1 UNK         0.0949 
    112 H112       28.4393   33.2553    0.7990 H         1 UNK         0.0806 
    113 H113       28.4678   31.5053    0.7647 H         1 UNK         0.0806 
    114 H114       27.0509   32.3516    1.3750 H         1 UNK         0.0806 
    115 H115       30.1297   33.4314    4.5611 H         1 UNK         0.3010 
    116 H116       32.1957   34.0365    5.0379 H         1 UNK         0.0829 
    117 H117       31.9968   35.3263    2.8582 H         1 UNK         0.0813 
    118 H118       33.6503   34.9426    3.2733 H         1 UNK         0.0813 
    119 H119       32.8199   34.0099    2.0313 H         1 UNK         0.0813 
    120 H120       34.7336   33.4297    3.9567 H         1 UNK         0.3038 
    121 H121       35.3166   30.9139    5.1366 H         1 UNK         0.0769 
    122 H122       37.6191   31.3558    4.2634 H         1 UNK         0.0811 
    123 H123       36.9497   32.7847    5.0306 H         1 UNK         0.0811 
    124 H124       37.0067   32.6705    3.2703 H         1 UNK         0.0811 
    125 H125       34.2860   31.6852    1.9265 H         1 UNK         0.3204 
    126 H126       35.1671   29.2635    0.5969 H         1 UNK         0.0748 
    127 H127       33.6103   30.0605   -1.1876 H         1 UNK         0.0771 
    128 H128       32.9889   31.3077   -0.1160 H         1 UNK         0.0771 
    129 H129       34.6670   31.3599   -0.6618 H         1 UNK         0.0771 
    130 H130       32.6852   29.9152    2.9294 H         1 UNK         0.2980 
    131 H131       30.9911   28.8691    3.7275 H         1 UNK         0.0545 
    132 H132       30.4540   30.1659    1.2519 H         1 UNK         0.3459 
    133 H133       29.1318   29.3078    0.4924 H         1 UNK         0.3459 
    134 H134       32.8672   26.8724    3.5785 H         1 UNK         0.0616 
    135 H135       31.6054   26.1106    2.6545 H         1 UNK         0.0616 
    136 H136       31.3984   24.4916    6.2628 H         1 UNK         0.0634 
    137 H137       32.5438   24.6329    4.9516 H         1 UNK         0.0634 
@<TRIPOS>BOND
     1    1    2 1    
     2    1   72 1    
     3    1   73 1    
     4    1   74 1    
     5    2    3 2    
     6    2    4 am   BACKBONE|DICT|INTERRES
     7    4    5 1    
     8    4   75 1    
     9    5    6 1    
    10    5   35 1    
    11    5   76 1    
    12    6    7 1    
    13    6   77 1    
    14    6   78 1    
    15    7    8 1    
    16    8    9 1    
    17    8   79 1    
    18    8   80 1    
    19    9   10 ar   
    20    9   14 ar   
    21   10   11 ar   
    22   10   81 1    
    23   11   12 ar   
    24   11   71 1    
    25   12   13 ar   
    26   12   82 1    
    27   13   14 ar   
    28   13   15 1    
    29   14   83 1    
    30   15   16 1    
    31   15   84 1    
    32   15   85 1    
    33   16   17 1    
    34   17   18 1    
    35   17   86 1    
    36   17   87 1    
    37   18   19 1    
    38   18   37 1    
    39   18   88 1    
    40   19   20 am   BACKBONE|DICT|INTERRES
    41   19   89 1    
    42   20   21 2    
    43   20   22 1    
    44   22   23 1    
    45   22   24 1    
    46   22   90 1    
    47   23   91 1    
    48   23   92 1    
    49   23   93 1    
    50   24   25 am   BACKBONE|DICT|INTERRES
    51   24   94 1    
    52   25   26 2    
    53   25   27 1    
    54   27   28 1    
    55   27   29 1    
    56   27   95 1    
    57   28   96 1    
    58   28   97 1    
    59   28   98 1    
    60   29   30 am   BACKBONE|DICT|INTERRES
    61   29   99 1    
    62   30   31 2    
    63   30   32 1    
    64   32   33 1    
    65   32   34 1    
    66   32  100 1    
    67   33  101 1    
    68   33  102 1    
    69   33  103 1    
    70   34   35 am   BACKBONE|DICT|INTERRES
    71   34  104 1    
    72   35   36 2    
    73   37   38 2    
    74   37   39 am   BACKBONE|DICT|INTERRES
    75   39   40 1    
    76   39  105 1    
    77   40   41 1    
    78   40   42 1    
    79   40  106 1    
    80   41  107 1    
    81   41  108 1    
    82   41  109 1    
    83   42   43 2    
    84   42   44 am   BACKBONE|DICT|INTERRES
    85   44   45 1    
    86   44  110 1    
    87   45   46 1    
    88   45   47 1    
    89   45  111 1    
    90   46  112 1    
    91   46  113 1    
    92   46  114 1    
    93   47   48 2    
    94   47   49 am   BACKBONE|DICT|INTERRES
    95   49   50 1    
    96   49  115 1    
    97   50   51 1    
    98   50   52 1    
    99   50  116 1    
   100   51  117 1    
   101   51  118 1    
   102   51  119 1    
   103   52   53 2    
   104   52   54 am   BACKBONE|DICT|INTERRES
   105   54   55 1    
   106   54  120 1    
   107   55   56 1    
   108   55   57 1    
   109   55  121 1    
   110   56  122 1    
   111   56  123 1    
   112   56  124 1    
   113   57   58 2    
   114   57   59 am   BACKBONE|DICT|INTERRES
   115   59   60 1    
   116   59  125 1    
   117   60   61 1    
   118   60   62 1    
   119   60  126 1    
   120   61  127 1    
   121   61  128 1    
   122   61  129 1    
   123   62   63 2    
   124   62   64 am   BACKBONE|DICT|INTERRES
   125   64   65 1    
   126   64  130 1    
   127   65   66 1    
   128   65   69 1    
   129   65  131 1    
   130   66   67 am   BACKBONE|DICT|INTERRES
   131   66   68 2    
   132   67  132 1    
   133   67  133 1    
   134   69   70 1    
   135   69  134 1    
   136   69  135 1    
   137   70   71 1    
   138   71  136 1    
   139   71  137 1    
@<TRIPOS>SUBSTRUCTURE
     1 UNK         1 GROUP             0       ****    0 ROOT    
