@<TRIPOS>MOLECULE
3R136
137   139    1
SMALL
USER_CHARGES


@<TRIPOS>ATOM
      1 CA         30.5227   19.9235   -2.1857 C.3       0 UNK        -0.1979 
      2 C          29.6384   20.9837   -1.5472 C.2       0 UNK         0.4864 
      3 O          29.3058   20.8690   -0.3669 O.2       0 UNK        -0.5359 
      4 N          29.2418   22.0027   -2.3233 N.am      1 UNK        -0.4318 
      5 CA         28.4436   23.1870   -1.9519 C.3       1 UNK         0.0824 
      6 C6         29.0711   24.0542   -0.8291 C.3       12 UNK        -0.0944 
      7 S7         30.8008   24.5415   -1.1532 S.3       12 UNK        -0.2672 
      8 C8         31.6698   23.7614    0.2467 C.3       12 UNK         0.0333 
      9 C9         31.3811   24.4812    1.5568 C.ar      12 UNK        -0.0807 
     10 C10        32.0742   25.6507    1.8790 C.ar      12 UNK        -0.0894 
     11 C11        31.8024   26.3488    3.0600 C.ar      12 UNK        -0.0804 
     12 C12        30.8312   25.8404    3.9349 C.ar      12 UNK        -0.0824 
     13 C13        30.1330   24.6681    3.6274 C.ar      12 UNK        -0.0762 
     14 C14        30.4200   23.9869    2.4425 C.ar      12 UNK        -0.0782 
     15 C15        29.0525   24.1445    4.5635 C.3       12 UNK         0.0230 
     16 S16        27.3829   24.6073    3.9943 S.3       12 UNK        -0.2608 
     17 C17        27.4078   26.4175    4.2168 C.3       12 UNK        -0.0989 
     18 CA         27.7062   27.1625    2.8900 C.3       5 UNK         0.0716 
     19 N          26.6312   26.9834    1.9070 N.am      5 UNK        -0.4135 
     20 C          26.7462   27.1294    0.5819 C.2       4 UNK         0.5031 
     21 O          27.8042   27.4429    0.0308 O.2       4 UNK        -0.5229 
     22 CA         25.4708   26.9230   -0.2592 C.3       4 UNK         0.0329 
     23 CB         25.7410   27.0335   -1.7717 C.3       4 UNK        -0.2001 
     24 N          24.7929   25.6512    0.0197 N.am      4 UNK        -0.4303 
     25 C          23.9906   25.4254    1.0718 C.2       3 UNK         0.5044 
     26 O          23.8217   26.2476    1.9740 O.2       3 UNK        -0.5152 
     27 CA         23.2315   24.0867    1.1410 C.3       3 UNK         0.0319 
     28 CB         21.7593   24.2896    0.7466 C.3       3 UNK        -0.2001 
     29 N          23.8070   23.0393    0.2965 N.am      3 UNK        -0.4354 
     30 C          24.8915   22.3219    0.6141 C.2       2 UNK         0.4964 
     31 O          25.5028   22.4400    1.6758 O.2       2 UNK        -0.5047 
     32 CA         25.4030   21.3111   -0.4284 C.3       2 UNK         0.0288 
     33 CB         24.4043   20.9982   -1.5677 C.3       2 UNK        -0.2113 
     34 N          26.6953   21.7452   -0.9643 N.am      2 UNK        -0.4145 
     35 C          26.9660   22.8868   -1.6127 C.2       1 UNK         0.5006 
     36 O          26.1022   23.7062   -1.9317 O.2       1 UNK        -0.5103 
     37 C          28.0295   28.6576    3.1108 C.2       5 UNK         0.5055 
     38 O          27.8963   29.1681    4.2246 O.2       5 UNK        -0.5220 
     39 N          28.4348   29.3333    2.0321 N.am      6 UNK        -0.4450 
     40 CA         28.8324   30.7393    1.9886 C.3       6 UNK         0.0367 
     41 CB         27.5883   31.6299    1.8015 C.3       6 UNK        -0.1929 
     42 C          29.8955   30.9645    0.8994 C.2       6 UNK         0.5070 
     43 O          29.9950   32.0652    0.3566 O.2       6 UNK        -0.5237 
     44 N          30.6713   29.9164    0.5835 N.am      7 UNK        -0.4739 
     45 CA         31.7322   29.9352   -0.4306 C.3       7 UNK         0.0276 
     46 CB         32.0173   28.4919   -0.8771 C.3       7 UNK        -0.1927 
     47 C          33.0263   30.6275    0.0423 C.2       7 UNK         0.5013 
     48 O          33.9124   30.8690   -0.7785 O.2       7 UNK        -0.5193 
     49 N          33.1159   30.9298    1.3415 N.am      8 UNK        -0.4253 
     50 CA         34.1877   31.6799    1.9849 C.3       8 UNK         0.0242 
     51 CB         35.0785   30.7043    2.7745 C.3       8 UNK        -0.2000 
     52 C          33.5480   32.7122    2.9210 C.2       8 UNK         0.4948 
     53 O          32.3866   32.5483    3.3059 O.2       8 UNK        -0.5275 
     54 N          34.3240   33.7396    3.2965 N.am      9 UNK        -0.4246 
     55 CA         33.9162   34.7906    4.2401 C.3       9 UNK         0.0261 
     56 CB         34.9834   35.8969    4.2705 C.3       9 UNK        -0.1959 
     57 C          33.6445   34.2607    5.6609 C.2       9 UNK         0.5033 
     58 O          32.7734   34.7908    6.3523 O.2       9 UNK        -0.5390 
     59 N          34.3722   33.2090    6.0484 N.am      10 UNK        -0.4215 
     60 CA         34.1299   32.3861    7.2236 C.3       10 UNK         0.0240 
     61 CB         34.9347   32.9134    8.4245 C.3       10 UNK        -0.1982 
     62 C          34.5461   30.9651    6.8381 C.2       10 UNK         0.4970 
     63 O          35.6758   30.7782    6.3801 O.2       10 UNK        -0.4916 
     64 N          33.6305   30.0056    6.9982 N.am      11 UNK        -0.4279 
     65 CA         33.8467   28.5893    6.6569 C.3       11 UNK         0.1003 
     66 C          34.4978   27.7549    7.7985 C.2       11 UNK         0.5709 
     67 N          34.7152   28.3039    8.9883 N.am      11 UNK        -0.7358 
     68 O          34.8274   26.5886    7.5965 O.2       11 UNK        -0.4999 
     69 C69        32.5461   27.9247    6.1342 C.3       12 UNK        -0.0954 
     70 S70        31.9087   28.7321    4.6240 S.3       12 UNK        -0.2268 
     71 C71        32.5883   27.6351    3.3326 C.3       12 UNK         0.0203 
     72 H72        31.4719   19.8597   -1.6544 H         1 UNK         0.0888 
     73 H73        30.0371   18.9493   -2.1349 H         1 UNK         0.0888 
     74 H74        30.7343   20.1436   -3.2319 H         1 UNK         0.0888 
     75 H75        29.5371   21.9989   -3.2899 H         1 UNK         0.3017 
     76 H76        28.4186   23.8017   -2.8533 H         1 UNK         0.0873 
     77 H77        29.0036   23.5332    0.1249 H         1 UNK         0.0745 
     78 H78        28.4986   24.9739   -0.7028 H         1 UNK         0.0745 
     79 H79        32.7425   23.7804    0.0490 H         1 UNK         0.0705 
     80 H80        31.3920   22.7086    0.3134 H         1 UNK         0.0705 
     81 H81        32.8259   26.0219    1.1966 H         1 UNK         0.1334 
     82 H82        30.5963   26.3561    4.8539 H         1 UNK         0.1417 
     83 H83        29.8794   23.0807    2.2045 H         1 UNK         0.1562 
     84 H84        29.2084   24.5093    5.5800 H         1 UNK         0.0748 
     85 H85        29.1151   23.0567    4.6198 H         1 UNK         0.0748 
     86 H86        28.1464   26.6636    4.9818 H         1 UNK         0.0940 
     87 H87        26.4449   26.7324    4.6231 H         1 UNK         0.0940 
     88 H88        28.6106   26.7255    2.4629 H         1 UNK         0.0703 
     89 H89        25.7146   26.7440    2.2717 H         1 UNK         0.3081 
     90 H90        24.7910   27.7364    0.0037 H         1 UNK         0.0719 
     91 H91        26.4758   26.3009   -2.1064 H         1 UNK         0.0809 
     92 H92        26.1310   28.0198   -2.0265 H         1 UNK         0.0809 
     93 H93        24.8304   26.8867   -2.3526 H         1 UNK         0.0809 
     94 H94        24.9504   24.9047   -0.6493 H         1 UNK         0.2990 
     95 H95        23.2593   23.7516    2.1802 H         1 UNK         0.0690 
     96 H96        21.1874   23.3683    0.8595 H         1 UNK         0.0788 
     97 H97        21.6596   24.6236   -0.2870 H         1 UNK         0.0788 
     98 H98        21.2854   25.0419    1.3791 H         1 UNK         0.0788 
     99 H99        23.3800   22.8897   -0.6066 H         1 UNK         0.2993 
    100 H100       25.5872   20.3822    0.1138 H         1 UNK         0.0949 
    101 H101       23.4566   20.6325   -1.1699 H         1 UNK         0.0767 
    102 H102       24.1906   21.8666   -2.1915 H         1 UNK         0.0767 
    103 H103       24.7958   20.2182   -2.2209 H         1 UNK         0.0767 
    104 H104       27.5039   21.1962   -0.6788 H         1 UNK         0.3013 
    105 H105       28.4451   28.8304    1.1454 H         1 UNK         0.3121 
    106 H106       29.3087   31.0023    2.9359 H         1 UNK         0.0774 
    107 H107       27.8560   32.6872    1.8118 H         1 UNK         0.0815 
    108 H108       27.0897   31.4260    0.8534 H         1 UNK         0.0815 
    109 H109       26.8646   31.4753    2.6018 H         1 UNK         0.0815 
    110 H110       30.5395   29.0494    1.0841 H         1 UNK         0.2987 
    111 H111       31.3696   30.4921   -1.2976 H         1 UNK         0.0949 
    112 H112       31.1122   27.9939   -1.2269 H         1 UNK         0.0806 
    113 H113       32.7347   28.4718   -1.6985 H         1 UNK         0.0806 
    114 H114       32.4365   27.8967   -0.0679 H         1 UNK         0.0806 
    115 H115       32.3034   30.7840    1.9265 H         1 UNK         0.3010 
    116 H116       34.7849   32.2081    1.2383 H         1 UNK         0.0829 
    117 H117       35.5036   29.9412    2.1224 H         1 UNK         0.0813 
    118 H118       35.9115   31.2238    3.2494 H         1 UNK         0.0813 
    119 H119       34.5210   30.1958    3.5625 H         1 UNK         0.0813 
    120 H120       35.2622   33.8028    2.9266 H         1 UNK         0.3038 
    121 H121       32.9844   35.2245    3.8706 H         1 UNK         0.0769 
    122 H122       35.9490   35.5201    4.6103 H         1 UNK         0.0811 
    123 H123       34.6914   36.7007    4.9479 H         1 UNK         0.0811 
    124 H124       35.1230   36.3420    3.2851 H         1 UNK         0.0811 
    125 H125       35.0612   32.8327    5.4104 H         1 UNK         0.3204 
    126 H126       33.0652   32.3982    7.4681 H         1 UNK         0.0748 
    127 H127       34.7707   32.2935    9.3067 H         1 UNK         0.0771 
    128 H128       36.0065   32.9194    8.2217 H         1 UNK         0.0771 
    129 H129       34.6383   33.9304    8.6822 H         1 UNK         0.0771 
    130 H130       32.7218   30.2374    7.3712 H         1 UNK         0.2980 
    131 H131       34.5664   28.5455    5.8370 H         1 UNK         0.0545 
    132 H132       34.4565   29.2604    9.1668 H         1 UNK         0.3459 
    133 H133       35.1437   27.7520    9.7146 H         1 UNK         0.3459 
    134 H134       31.7666   27.9610    6.8970 H         1 UNK         0.0616 
    135 H135       32.7131   26.8671    5.9228 H         1 UNK         0.0616 
    136 H136       33.6179   27.3788    3.5858 H         1 UNK         0.0634 
    137 H137       32.6387   28.2164    2.4117 H         1 UNK         0.0634 
@<TRIPOS>BOND
     1    1    2 1    
     2    1   72 1    
     3    1   73 1    
     4    1   74 1    
     5    2    3 2    
     6    2    4 am   BACKBONE|DICT|INTERRES
     7    4    5 1    
     8    4   75 1    
     9    5    6 1    
    10    5   35 1    
    11    5   76 1    
    12    6    7 1    
    13    6   77 1    
    14    6   78 1    
    15    7    8 1    
    16    8    9 1    
    17    8   79 1    
    18    8   80 1    
    19    9   10 ar   
    20    9   14 ar   
    21   10   11 ar   
    22   10   81 1    
    23   11   12 ar   
    24   11   71 1    
    25   12   13 ar   
    26   12   82 1    
    27   13   14 ar   
    28   13   15 1    
    29   14   83 1    
    30   15   16 1    
    31   15   84 1    
    32   15   85 1    
    33   16   17 1    
    34   17   18 1    
    35   17   86 1    
    36   17   87 1    
    37   18   19 1    
    38   18   37 1    
    39   18   88 1    
    40   19   20 am   BACKBONE|DICT|INTERRES
    41   19   89 1    
    42   20   21 2    
    43   20   22 1    
    44   22   23 1    
    45   22   24 1    
    46   22   90 1    
    47   23   91 1    
    48   23   92 1    
    49   23   93 1    
    50   24   25 am   BACKBONE|DICT|INTERRES
    51   24   94 1    
    52   25   26 2    
    53   25   27 1    
    54   27   28 1    
    55   27   29 1    
    56   27   95 1    
    57   28   96 1    
    58   28   97 1    
    59   28   98 1    
    60   29   30 am   BACKBONE|DICT|INTERRES
    61   29   99 1    
    62   30   31 2    
    63   30   32 1    
    64   32   33 1    
    65   32   34 1    
    66   32  100 1    
    67   33  101 1    
    68   33  102 1    
    69   33  103 1    
    70   34   35 am   BACKBONE|DICT|INTERRES
    71   34  104 1    
    72   35   36 2    
    73   37   38 2    
    74   37   39 am   BACKBONE|DICT|INTERRES
    75   39   40 1    
    76   39  105 1    
    77   40   41 1    
    78   40   42 1    
    79   40  106 1    
    80   41  107 1    
    81   41  108 1    
    82   41  109 1    
    83   42   43 2    
    84   42   44 am   BACKBONE|DICT|INTERRES
    85   44   45 1    
    86   44  110 1    
    87   45   46 1    
    88   45   47 1    
    89   45  111 1    
    90   46  112 1    
    91   46  113 1    
    92   46  114 1    
    93   47   48 2    
    94   47   49 am   BACKBONE|DICT|INTERRES
    95   49   50 1    
    96   49  115 1    
    97   50   51 1    
    98   50   52 1    
    99   50  116 1    
   100   51  117 1    
   101   51  118 1    
   102   51  119 1    
   103   52   53 2    
   104   52   54 am   BACKBONE|DICT|INTERRES
   105   54   55 1    
   106   54  120 1    
   107   55   56 1    
   108   55   57 1    
   109   55  121 1    
   110   56  122 1    
   111   56  123 1    
   112   56  124 1    
   113   57   58 2    
   114   57   59 am   BACKBONE|DICT|INTERRES
   115   59   60 1    
   116   59  125 1    
   117   60   61 1    
   118   60   62 1    
   119   60  126 1    
   120   61  127 1    
   121   61  128 1    
   122   61  129 1    
   123   62   63 2    
   124   62   64 am   BACKBONE|DICT|INTERRES
   125   64   65 1    
   126   64  130 1    
   127   65   66 1    
   128   65   69 1    
   129   65  131 1    
   130   66   67 am   BACKBONE|DICT|INTERRES
   131   66   68 2    
   132   67  132 1    
   133   67  133 1    
   134   69   70 1    
   135   69  134 1    
   136   69  135 1    
   137   70   71 1    
   138   71  136 1    
   139   71  137 1    
@<TRIPOS>SUBSTRUCTURE
     1 UNK         1 GROUP             0       ****    0 ROOT    
