@<TRIPOS>MOLECULE
3R136
137   139    1
SMALL
USER_CHARGES


@<TRIPOS>ATOM
      1 CA         34.4345   25.5822    0.2712 C.3       0 UNK        -0.1979 
      2 C          33.0895   26.1805    0.6539 C.2       0 UNK         0.4864 
      3 O          32.9419   26.6880    1.7645 O.2       0 UNK        -0.5359 
      4 N          32.1107   26.1180   -0.2532 N.am      1 UNK        -0.4318 
      5 CA         30.7611   26.6489   -0.0812 C.3       1 UNK         0.0824 
      6 C6         29.8638   25.7518    0.8176 C.3       12 UNK        -0.0944 
      7 S7         29.5527   24.0670    0.1809 S.3       12 UNK        -0.2672 
      8 C8         30.8329   23.0869    1.0325 C.3       12 UNK         0.0333 
      9 C9         30.6285   23.0498    2.5401 C.ar      12 UNK        -0.0807 
     10 C10        31.5408   23.6746    3.3981 C.ar      12 UNK        -0.0894 
     11 C11        31.3562   23.6256    4.7831 C.ar      12 UNK        -0.0804 
     12 C12        30.2363   22.9709    5.3049 C.ar      12 UNK        -0.0824 
     13 C13        29.3117   22.3534    4.4578 C.ar      12 UNK        -0.0762 
     14 C14        29.5278   22.3764    3.0767 C.ar      12 UNK        -0.0782 
     15 C15        28.0914   21.6529    5.0444 C.3       12 UNK         0.0230 
     16 S16        26.5217   22.1785    4.2772 S.3       12 UNK        -0.2608 
     17 C17        26.5305   23.9869    4.5508 C.3       12 UNK        -0.0989 
     18 CA         26.7147   24.7947    3.2315 C.3       5 UNK         0.0716 
     19 N          25.7646   24.4252    2.1734 N.am      5 UNK        -0.4135 
     20 C          24.4275   24.5141    2.2223 C.2       4 UNK         0.5031 
     21 O          23.8015   24.9065    3.2087 O.2       4 UNK        -0.5229 
     22 CA         23.6656   24.1212    0.9354 C.3       4 UNK         0.0329 
     23 CB         22.2607   24.7582    0.8736 C.3       4 UNK        -0.2001 
     24 N          24.3896   24.3945   -0.3188 N.am      4 UNK        -0.4303 
     25 C          24.9255   25.5649   -0.6940 C.2       3 UNK         0.5044 
     26 O          24.9677   26.5655    0.0255 O.2       3 UNK        -0.5152 
     27 CA         25.5115   25.6366   -2.1068 C.3       3 UNK         0.0319 
     28 CB         24.4015   25.9598   -3.1271 C.3       3 UNK        -0.2001 
     29 N          26.5343   26.6771   -2.0972 N.am      3 UNK        -0.4354 
     30 C          27.3939   26.9788   -3.0754 C.2       2 UNK         0.4964 
     31 O          27.4323   26.4133   -4.1686 O.2       2 UNK        -0.5047 
     32 CA         28.4034   28.0891   -2.7536 C.3       2 UNK         0.0288 
     33 CB         27.7085   29.4537   -2.6008 C.3       2 UNK        -0.2113 
     34 N          29.1403   27.7730   -1.5302 N.am      2 UNK        -0.4145 
     35 C          30.1673   26.9166   -1.4737 C.2       1 UNK         0.5006 
     36 O          30.6549   26.3602   -2.4637 O.2       1 UNK        -0.5103 
     37 C          26.7979   26.3220    3.4843 C.2       5 UNK         0.5055 
     38 O          27.4064   26.7262    4.4767 O.2       5 UNK        -0.5220 
     39 N          26.2252   27.1558    2.5997 N.am      6 UNK        -0.4450 
     40 CA         26.3562   28.6131    2.6421 C.3       6 UNK         0.0367 
     41 CB         25.1623   29.2665    1.9280 C.3       6 UNK        -0.1929 
     42 C          27.6755   29.0157    1.9730 C.2       6 UNK         0.5070 
     43 O          27.9533   28.5630    0.8596 O.2       6 UNK        -0.5237 
     44 N          28.4664   29.8477    2.6528 N.am      7 UNK        -0.4739 
     45 CA         29.8060   30.2443    2.2312 C.3       7 UNK         0.0276 
     46 CB         30.8216   29.2337    2.7960 C.3       7 UNK        -0.1927 
     47 C          30.1180   31.6534    2.7460 C.2       7 UNK         0.5013 
     48 O          29.4456   32.1425    3.6584 O.2       7 UNK        -0.5193 
     49 N          31.1643   32.2532    2.1747 N.am      8 UNK        -0.4253 
     50 CA         31.8102   33.4740    2.6408 C.3       8 UNK         0.0242 
     51 CB         31.3590   34.6676    1.7829 C.3       8 UNK        -0.2000 
     52 C          33.3181   33.2382    2.5172 C.2       8 UNK         0.4948 
     53 O          33.7420   32.5663    1.5710 O.2       8 UNK        -0.5275 
     54 N          34.0941   33.7616    3.4767 N.am      9 UNK        -0.4246 
     55 CA         35.5443   33.5888    3.6734 C.3       9 UNK         0.0261 
     56 CB         36.3573   34.1437    2.4863 C.3       9 UNK        -0.1959 
     57 C          35.9583   32.1433    4.0165 C.2       9 UNK         0.5033 
     58 O          36.6285   31.9308    5.0282 O.2       9 UNK        -0.5390 
     59 N          35.5342   31.1806    3.1912 N.am      10 UNK        -0.4215 
     60 CA         35.6105   29.7439    3.4482 C.3       10 UNK         0.0240 
     61 CB         35.4501   28.9954    2.1154 C.3       10 UNK        -0.1982 
     62 C          34.5224   29.3094    4.4455 C.2       10 UNK         0.4970 
     63 O          33.5079   29.9978    4.5856 O.2       10 UNK        -0.4916 
     64 N          34.7585   28.1728    5.1126 N.am      11 UNK        -0.4279 
     65 CA         33.9005   27.5281    6.1246 C.3       11 UNK         0.1003 
     66 C          33.7358   28.3257    7.4543 C.2       11 UNK         0.5709 
     67 N          33.5387   29.6359    7.4159 N.am      11 UNK        -0.7358 
     68 O          33.8189   27.7491    8.5362 O.2       11 UNK        -0.4999 
     69 C69        32.5369   27.0594    5.5387 C.3       12 UNK        -0.0954 
     70 S70        31.7534   25.7455    6.5320 S.3       12 UNK        -0.2268 
     71 C71        32.3799   24.2383    5.7279 C.3       12 UNK         0.0203 
     72 H72        35.1898   26.3651    0.2116 H         1 UNK         0.0888 
     73 H73        34.7499   24.8592    1.0230 H         1 UNK         0.0888 
     74 H74        34.3941   25.0735   -0.6918 H         1 UNK         0.0888 
     75 H75        32.2720   25.7287   -1.1744 H         1 UNK         0.3017 
     76 H76        30.8555   27.6266    0.3933 H         1 UNK         0.0873 
     77 H77        30.2912   25.6936    1.8187 H         1 UNK         0.0745 
     78 H78        28.8898   26.2177    0.9591 H         1 UNK         0.0745 
     79 H79        30.8055   22.0673    0.6460 H         1 UNK         0.0705 
     80 H80        31.8188   23.4778    0.7811 H         1 UNK         0.0705 
     81 H81        32.3992   24.1908    2.9899 H         1 UNK         0.1334 
     82 H82        30.0905   22.9418    6.3763 H         1 UNK         0.1417 
     83 H83        28.8227   21.8920    2.4146 H         1 UNK         0.1562 
     84 H84        28.0249   21.8237    6.1201 H         1 UNK         0.0748 
     85 H85        28.2055   20.5765    4.9103 H         1 UNK         0.0748 
     86 H86        27.3204   24.2326    5.2631 H         1 UNK         0.0940 
     87 H87        25.5964   24.2623    5.0426 H         1 UNK         0.0940 
     88 H88        27.6954   24.5337    2.8326 H         1 UNK         0.0703 
     89 H89        26.1803   24.0913    1.3163 H         1 UNK         0.3081 
     90 H90        23.5360   23.0390    0.9854 H         1 UNK         0.0719 
     91 H91        22.3143   25.8477    0.8709 H         1 UNK         0.0809 
     92 H92        21.7220   24.4471   -0.0214 H         1 UNK         0.0809 
     93 H93        21.6549   24.4633    1.7314 H         1 UNK         0.0809 
     94 H94        24.4278   23.6244   -0.9731 H         1 UNK         0.2990 
     95 H95        25.9818   24.6820   -2.3510 H         1 UNK         0.0690 
     96 H96        24.7808   25.9691   -4.1487 H         1 UNK         0.0788 
     97 H97        23.9477   26.9320   -2.9300 H         1 UNK         0.0788 
     98 H98        23.6055   25.2149   -3.0906 H         1 UNK         0.0788 
     99 H99        26.5711   27.1950   -1.2261 H         1 UNK         0.2993 
    100 H100       29.1061   28.1584   -3.5873 H         1 UNK         0.0949 
    101 H101       27.1350   29.7019   -3.4950 H         1 UNK         0.0767 
    102 H102       27.0204   29.4710   -1.7544 H         1 UNK         0.0767 
    103 H103       28.4370   30.2508   -2.4513 H         1 UNK         0.0767 
    104 H104       28.7621   28.1474   -0.6585 H         1 UNK         0.3013 
    105 H105       25.7715   26.7788    1.7716 H         1 UNK         0.3121 
    106 H106       26.3545   28.9453    3.6827 H         1 UNK         0.0774 
    107 H107       25.1955   30.3515    2.0328 H         1 UNK         0.0815 
    108 H108       25.1562   29.0461    0.8600 H         1 UNK         0.0815 
    109 H109       24.2144   28.9269    2.3454 H         1 UNK         0.0815 
    110 H110       28.1575   30.2549    3.5267 H         1 UNK         0.2987 
    111 H111       29.8610   30.2564    1.1400 H         1 UNK         0.0949 
    112 H112       31.8148   29.3869    2.3722 H         1 UNK         0.0806 
    113 H113       30.9128   29.3320    3.8777 H         1 UNK         0.0806 
    114 H114       30.5358   28.2029    2.5911 H         1 UNK         0.0806 
    115 H115       31.7021   31.7569    1.4746 H         1 UNK         0.3010 
    116 H116       31.5606   33.6565    3.6887 H         1 UNK         0.0829 
    117 H117       30.2815   34.8180    1.8515 H         1 UNK         0.0813 
    118 H118       31.8381   35.5899    2.1139 H         1 UNK         0.0813 
    119 H119       31.6111   34.5265    0.7310 H         1 UNK         0.0813 
    120 H120       33.6329   34.2797    4.2125 H         1 UNK         0.3038 
    121 H121       35.7940   34.1969    4.5446 H         1 UNK         0.0769 
    122 H122       36.1834   33.5834    1.5674 H         1 UNK         0.0811 
    123 H123       37.4270   34.0960    2.6943 H         1 UNK         0.0811 
    124 H124       36.1116   35.1878    2.2926 H         1 UNK         0.0811 
    125 H125       34.9294   31.4788    2.4278 H         1 UNK         0.3204 
    126 H126       36.5911   29.5138    3.8702 H         1 UNK         0.0748 
    127 H127       36.2176   29.2886    1.3989 H         1 UNK         0.0771 
    128 H128       35.5352   27.9176    2.2590 H         1 UNK         0.0771 
    129 H129       34.4761   29.1859    1.6617 H         1 UNK         0.0771 
    130 H130       35.6320   27.6974    4.9391 H         1 UNK         0.2980 
    131 H131       34.4566   26.6279    6.3904 H         1 UNK         0.0545 
    132 H132       33.4424   30.1600    8.2706 H         1 UNK         0.3459 
    133 H133       33.4551   30.0897    6.5126 H         1 UNK         0.3459 
    134 H134       31.8419   27.8964    5.4686 H         1 UNK         0.0616 
    135 H135       32.6627   26.6917    4.5190 H         1 UNK         0.0616 
    136 H136       33.3165   24.4492    5.2093 H         1 UNK         0.0634 
    137 H137       32.6240   23.5108    6.5033 H         1 UNK         0.0634 
@<TRIPOS>BOND
     1    1    2 1    
     2    1   72 1    
     3    1   73 1    
     4    1   74 1    
     5    2    3 2    
     6    2    4 am   BACKBONE|DICT|INTERRES
     7    4    5 1    
     8    4   75 1    
     9    5    6 1    
    10    5   35 1    
    11    5   76 1    
    12    6    7 1    
    13    6   77 1    
    14    6   78 1    
    15    7    8 1    
    16    8    9 1    
    17    8   79 1    
    18    8   80 1    
    19    9   10 ar   
    20    9   14 ar   
    21   10   11 ar   
    22   10   81 1    
    23   11   12 ar   
    24   11   71 1    
    25   12   13 ar   
    26   12   82 1    
    27   13   14 ar   
    28   13   15 1    
    29   14   83 1    
    30   15   16 1    
    31   15   84 1    
    32   15   85 1    
    33   16   17 1    
    34   17   18 1    
    35   17   86 1    
    36   17   87 1    
    37   18   19 1    
    38   18   37 1    
    39   18   88 1    
    40   19   20 am   BACKBONE|DICT|INTERRES
    41   19   89 1    
    42   20   21 2    
    43   20   22 1    
    44   22   23 1    
    45   22   24 1    
    46   22   90 1    
    47   23   91 1    
    48   23   92 1    
    49   23   93 1    
    50   24   25 am   BACKBONE|DICT|INTERRES
    51   24   94 1    
    52   25   26 2    
    53   25   27 1    
    54   27   28 1    
    55   27   29 1    
    56   27   95 1    
    57   28   96 1    
    58   28   97 1    
    59   28   98 1    
    60   29   30 am   BACKBONE|DICT|INTERRES
    61   29   99 1    
    62   30   31 2    
    63   30   32 1    
    64   32   33 1    
    65   32   34 1    
    66   32  100 1    
    67   33  101 1    
    68   33  102 1    
    69   33  103 1    
    70   34   35 am   BACKBONE|DICT|INTERRES
    71   34  104 1    
    72   35   36 2    
    73   37   38 2    
    74   37   39 am   BACKBONE|DICT|INTERRES
    75   39   40 1    
    76   39  105 1    
    77   40   41 1    
    78   40   42 1    
    79   40  106 1    
    80   41  107 1    
    81   41  108 1    
    82   41  109 1    
    83   42   43 2    
    84   42   44 am   BACKBONE|DICT|INTERRES
    85   44   45 1    
    86   44  110 1    
    87   45   46 1    
    88   45   47 1    
    89   45  111 1    
    90   46  112 1    
    91   46  113 1    
    92   46  114 1    
    93   47   48 2    
    94   47   49 am   BACKBONE|DICT|INTERRES
    95   49   50 1    
    96   49  115 1    
    97   50   51 1    
    98   50   52 1    
    99   50  116 1    
   100   51  117 1    
   101   51  118 1    
   102   51  119 1    
   103   52   53 2    
   104   52   54 am   BACKBONE|DICT|INTERRES
   105   54   55 1    
   106   54  120 1    
   107   55   56 1    
   108   55   57 1    
   109   55  121 1    
   110   56  122 1    
   111   56  123 1    
   112   56  124 1    
   113   57   58 2    
   114   57   59 am   BACKBONE|DICT|INTERRES
   115   59   60 1    
   116   59  125 1    
   117   60   61 1    
   118   60   62 1    
   119   60  126 1    
   120   61  127 1    
   121   61  128 1    
   122   61  129 1    
   123   62   63 2    
   124   62   64 am   BACKBONE|DICT|INTERRES
   125   64   65 1    
   126   64  130 1    
   127   65   66 1    
   128   65   69 1    
   129   65  131 1    
   130   66   67 am   BACKBONE|DICT|INTERRES
   131   66   68 2    
   132   67  132 1    
   133   67  133 1    
   134   69   70 1    
   135   69  134 1    
   136   69  135 1    
   137   70   71 1    
   138   71  136 1    
   139   71  137 1    
@<TRIPOS>SUBSTRUCTURE
     1 UNK         1 GROUP             0       ****    0 ROOT    
