@<TRIPOS>MOLECULE
3R136
137   139    1
SMALL
USER_CHARGES


@<TRIPOS>ATOM
      1 CA         29.3816   20.5992   -2.3289 C.3       0 UNK        -0.1979 
      2 C          29.5298   21.7467   -1.3406 C.2       0 UNK         0.4864 
      3 O          28.6198   22.5665   -1.2182 O.2       0 UNK        -0.5359 
      4 N          30.6719   21.8108   -0.6443 N.am      1 UNK        -0.4318 
      5 CA         30.9916   22.8118    0.3777 C.3       1 UNK         0.0824 
      6 C6         32.4981   22.7754    0.7475 C.3       12 UNK        -0.0944 
      7 S7         33.5471   23.3192   -0.6478 S.3       12 UNK        -0.2672 
      8 C8         33.9799   25.0287   -0.1744 C.3       12 UNK         0.0333 
      9 C9         32.7491   25.8379    0.2059 C.ar      12 UNK        -0.0807 
     10 C10        32.5025   26.1423    1.5488 C.ar      12 UNK        -0.0894 
     11 C11        31.3223   26.7886    1.9223 C.ar      12 UNK        -0.0804 
     12 C12        30.4112   27.1624    0.9355 C.ar      12 UNK        -0.0824 
     13 C13        30.6570   26.8994   -0.4136 C.ar      12 UNK        -0.0762 
     14 C14        31.8339   26.2368   -0.7748 C.ar      12 UNK        -0.0782 
     15 C15        29.6564   27.3467   -1.4708 C.3       12 UNK         0.0230 
     16 S16        27.9989   26.6401   -1.1851 S.3       12 UNK        -0.2608 
     17 C17        26.9075   28.1036   -1.3415 C.3       12 UNK        -0.0989 
     18 CA         26.3204   28.6345   -0.0007 C.3       5 UNK         0.0716 
     19 N          25.6115   27.5936    0.7381 N.am      5 UNK        -0.4135 
     20 C          24.2916   27.3792    0.7370 C.2       4 UNK         0.5031 
     21 O          23.4997   27.9929    0.0200 O.2       4 UNK        -0.5229 
     22 CA         23.7486   26.3030    1.7015 C.3       4 UNK         0.0329 
     23 CB         23.3967   25.0201    0.9306 C.3       4 UNK        -0.2001 
     24 N          24.6845   25.9665    2.7776 N.am      4 UNK        -0.4303 
     25 C          25.0432   26.7851    3.7769 C.2       3 UNK         0.5044 
     26 O          24.4757   27.8534    4.0089 O.2       3 UNK        -0.5152 
     27 CA         26.2436   26.3625    4.6517 C.3       3 UNK         0.0319 
     28 CB         25.8461   26.2667    6.1346 C.3       3 UNK        -0.2001 
     29 N          26.9020   25.1079    4.2570 N.am      3 UNK        -0.4354 
     30 C          27.5953   24.9071    3.1275 C.2       2 UNK         0.4964 
     31 O          27.7079   25.7460    2.2326 O.2       2 UNK        -0.5047 
     32 CA         28.1999   23.5106    2.9476 C.3       2 UNK         0.0288 
     33 CB         27.0952   22.4803    2.6321 C.3       2 UNK        -0.2113 
     34 N          29.1774   23.5455    1.8633 N.am      2 UNK        -0.4145 
     35 C          30.1011   22.6084    1.6189 C.2       1 UNK         0.5006 
     36 O          30.2577   21.5996    2.3122 O.2       1 UNK        -0.5103 
     37 C          27.3571   29.2782    0.9442 C.2       5 UNK         0.5055 
     38 O          27.3966   28.9521    2.1333 O.2       5 UNK        -0.5220 
     39 N          28.1906   30.1758    0.4115 N.am      6 UNK        -0.4450 
     40 CA         29.3581   30.7359    1.0865 C.3       6 UNK         0.0367 
     41 CB         28.9940   32.0663    1.7664 C.3       6 UNK        -0.1929 
     42 C          30.4525   30.9240    0.0326 C.2       6 UNK         0.5070 
     43 O          30.1333   31.1234   -1.1432 O.2       6 UNK        -0.5237 
     44 N          31.7115   30.8519    0.4658 N.am      7 UNK        -0.4739 
     45 CA         32.8943   30.9771   -0.3822 C.3       7 UNK         0.0276 
     46 CB         33.2962   29.5844   -0.9161 C.3       7 UNK        -0.1927 
     47 C          33.9809   31.6996    0.4249 C.2       7 UNK         0.5013 
     48 O          33.7514   32.8307    0.8564 O.2       7 UNK        -0.5193 
     49 N          35.1251   31.0383    0.6523 N.am      8 UNK        -0.4253 
     50 CA         36.2027   31.5065    1.5341 C.3       8 UNK         0.0242 
     51 CB         37.4533   30.6425    1.3014 C.3       8 UNK        -0.2000 
     52 C          35.8139   31.5031    3.0271 C.2       8 UNK         0.4948 
     53 O          36.4667   32.1778    3.8246 O.2       8 UNK        -0.5275 
     54 N          34.7602   30.7555    3.3697 N.am      9 UNK        -0.4246 
     55 CA         34.1000   30.7152    4.6661 C.3       9 UNK         0.0261 
     56 CB         34.6023   29.4890    5.4500 C.3       9 UNK        -0.1959 
     57 C          32.5872   30.6348    4.4184 C.2       9 UNK         0.5033 
     58 O          32.1618   30.3819    3.2856 O.2       9 UNK        -0.5390 
     59 N          31.8073   30.8245    5.4883 N.am      10 UNK        -0.4215 
     60 CA         30.3472   30.6837    5.4905 C.3       10 UNK         0.0240 
     61 CB         29.7486   31.7642    6.4081 C.3       10 UNK        -0.1982 
     62 C          29.8757   29.2810    5.9253 C.2       10 UNK         0.4970 
     63 O          28.6727   29.0253    5.8737 O.2       10 UNK        -0.4916 
     64 N          30.8077   28.4098    6.3478 N.am      11 UNK        -0.4279 
     65 CA         30.5611   27.0567    6.8817 C.3       11 UNK         0.1003 
     66 C          29.7485   27.0736    8.2167 C.2       11 UNK         0.5709 
     67 N          29.1994   25.9463    8.6511 N.am      11 UNK        -0.7358 
     68 O          29.6601   28.0894    8.9053 O.2       11 UNK        -0.4999 
     69 C69        29.9922   26.0802    5.8052 C.3       12 UNK        -0.0954 
     70 S70        31.1701   25.6636    4.4762 S.3       12 UNK        -0.2268 
     71 C71        31.0183   27.1074    3.3788 C.3       12 UNK         0.0203 
     72 H72        30.2622   19.9573   -2.3446 H         1 UNK         0.0888 
     73 H73        28.5199   19.9865   -2.0653 H         1 UNK         0.0888 
     74 H74        29.2283   20.9886   -3.3350 H         1 UNK         0.0888 
     75 H75        31.3787   21.1044   -0.7886 H         1 UNK         0.3017 
     76 H76        30.7606   23.7932   -0.0392 H         1 UNK         0.0873 
     77 H77        32.7064   23.3944    1.6212 H         1 UNK         0.0745 
     78 H78        32.7985   21.7645    1.0294 H         1 UNK         0.0745 
     79 H79        34.6934   24.9986    0.6506 H         1 UNK         0.0705 
     80 H80        34.4928   25.5121   -1.0070 H         1 UNK         0.0705 
     81 H81        33.2096   25.8429    2.3102 H         1 UNK         0.1334 
     82 H82        29.4945   27.6494    1.2242 H         1 UNK         0.1417 
     83 H83        32.0292   26.0053   -1.8131 H         1 UNK         0.1562 
     84 H84        29.9887   27.0571   -2.4687 H         1 UNK         0.0748 
     85 H85        29.6185   28.4348   -1.4677 H         1 UNK         0.0748 
     86 H86        26.0775   27.8065   -1.9845 H         1 UNK         0.0940 
     87 H87        27.4112   28.8959   -1.8965 H         1 UNK         0.0940 
     88 H88        25.6166   29.4350   -0.2383 H         1 UNK         0.0703 
     89 H89        26.2012   27.0746    1.3815 H         1 UNK         0.3081 
     90 H90        22.8362   26.6969    2.1540 H         1 UNK         0.0719 
     91 H91        24.2764   24.5774    0.4611 H         1 UNK         0.0809 
     92 H92        22.9512   24.2714    1.5859 H         1 UNK         0.0809 
     93 H93        22.6746   25.2265    0.1393 H         1 UNK         0.0809 
     94 H94        25.2077   25.1107    2.6682 H         1 UNK         0.2990 
     95 H95        26.9792   27.1635    4.5511 H         1 UNK         0.0690 
     96 H96        26.7139   26.0749    6.7661 H         1 UNK         0.0788 
     97 H97        25.1181   25.4733    6.3071 H         1 UNK         0.0788 
     98 H98        25.4014   27.2002    6.4824 H         1 UNK         0.0788 
     99 H99        26.8262   24.3456    4.9154 H         1 UNK         0.2993 
    100 H100       28.7129   23.2387    3.8729 H         1 UNK         0.0949 
    101 H101       26.3396   22.4497    3.4180 H         1 UNK         0.0767 
    102 H102       26.5868   22.7147    1.6956 H         1 UNK         0.0767 
    103 H103       27.5010   21.4724    2.5445 H         1 UNK         0.0767 
    104 H104       29.1096   24.3681    1.2738 H         1 UNK         0.3013 
    105 H105       28.1489   30.3954   -0.5763 H         1 UNK         0.3121 
    106 H106       29.7260   30.0355    1.8404 H         1 UNK         0.0774 
    107 H107       29.8614   32.4940    2.2712 H         1 UNK         0.0815 
    108 H108       28.6356   32.8025    1.0460 H         1 UNK         0.0815 
    109 H109       28.2182   31.9253    2.5190 H         1 UNK         0.0815 
    110 H110       31.8838   30.7251    1.4633 H         1 UNK         0.2987 
    111 H111       32.6707   31.6225   -1.2347 H         1 UNK         0.0949 
    112 H112       33.4888   28.8758   -0.1092 H         1 UNK         0.0806 
    113 H113       32.5012   29.1635   -1.5319 H         1 UNK         0.0806 
    114 H114       34.1852   29.6368   -1.5457 H         1 UNK         0.0806 
    115 H115       35.2353   30.1182    0.2507 H         1 UNK         0.3010 
    116 H116       36.4406   32.5373    1.2625 H         1 UNK         0.0829 
    117 H117       37.7831   30.6913    0.2634 H         1 UNK         0.0813 
    118 H118       38.2845   30.9853    1.9194 H         1 UNK         0.0813 
    119 H119       37.2737   29.5956    1.5498 H         1 UNK         0.0813 
    120 H120       34.2382   30.2933    2.6369 H         1 UNK         0.3038 
    121 H121       34.3126   31.6303    5.2233 H         1 UNK         0.0769 
    122 H122       35.6856   29.5162    5.5704 H         1 UNK         0.0811 
    123 H123       34.3478   28.5555    4.9456 H         1 UNK         0.0811 
    124 H124       34.1713   29.4515    6.4508 H         1 UNK         0.0811 
    125 H125       32.2391   31.0542    6.3729 H         1 UNK         0.3204 
    126 H126       29.9608   30.8489    4.4823 H         1 UNK         0.0748 
    127 H127       30.0370   32.7642    6.0832 H         1 UNK         0.0771 
    128 H128       28.6583   31.7258    6.3988 H         1 UNK         0.0771 
    129 H129       30.0699   31.6396    7.4430 H         1 UNK         0.0771 
    130 H130       31.7663   28.7172    6.3802 H         1 UNK         0.2980 
    131 H131       31.5426   26.6831    7.1749 H         1 UNK         0.0545 
    132 H132       29.2890   25.0866    8.1342 H         1 UNK         0.3459 
    133 H133       28.6975   25.9554    9.5251 H         1 UNK         0.3459 
    134 H134       29.0770   26.4749    5.3689 H         1 UNK         0.0616 
    135 H135       29.7163   25.1233    6.2481 H         1 UNK         0.0616 
    136 H136       30.0147   27.5265    3.4696 H         1 UNK         0.0634 
    137 H137       31.7134   27.8714    3.7199 H         1 UNK         0.0634 
@<TRIPOS>BOND
     1    1    2 1    
     2    1   72 1    
     3    1   73 1    
     4    1   74 1    
     5    2    3 2    
     6    2    4 am   BACKBONE|DICT|INTERRES
     7    4    5 1    
     8    4   75 1    
     9    5    6 1    
    10    5   35 1    
    11    5   76 1    
    12    6    7 1    
    13    6   77 1    
    14    6   78 1    
    15    7    8 1    
    16    8    9 1    
    17    8   79 1    
    18    8   80 1    
    19    9   10 ar   
    20    9   14 ar   
    21   10   11 ar   
    22   10   81 1    
    23   11   12 ar   
    24   11   71 1    
    25   12   13 ar   
    26   12   82 1    
    27   13   14 ar   
    28   13   15 1    
    29   14   83 1    
    30   15   16 1    
    31   15   84 1    
    32   15   85 1    
    33   16   17 1    
    34   17   18 1    
    35   17   86 1    
    36   17   87 1    
    37   18   19 1    
    38   18   37 1    
    39   18   88 1    
    40   19   20 am   BACKBONE|DICT|INTERRES
    41   19   89 1    
    42   20   21 2    
    43   20   22 1    
    44   22   23 1    
    45   22   24 1    
    46   22   90 1    
    47   23   91 1    
    48   23   92 1    
    49   23   93 1    
    50   24   25 am   BACKBONE|DICT|INTERRES
    51   24   94 1    
    52   25   26 2    
    53   25   27 1    
    54   27   28 1    
    55   27   29 1    
    56   27   95 1    
    57   28   96 1    
    58   28   97 1    
    59   28   98 1    
    60   29   30 am   BACKBONE|DICT|INTERRES
    61   29   99 1    
    62   30   31 2    
    63   30   32 1    
    64   32   33 1    
    65   32   34 1    
    66   32  100 1    
    67   33  101 1    
    68   33  102 1    
    69   33  103 1    
    70   34   35 am   BACKBONE|DICT|INTERRES
    71   34  104 1    
    72   35   36 2    
    73   37   38 2    
    74   37   39 am   BACKBONE|DICT|INTERRES
    75   39   40 1    
    76   39  105 1    
    77   40   41 1    
    78   40   42 1    
    79   40  106 1    
    80   41  107 1    
    81   41  108 1    
    82   41  109 1    
    83   42   43 2    
    84   42   44 am   BACKBONE|DICT|INTERRES
    85   44   45 1    
    86   44  110 1    
    87   45   46 1    
    88   45   47 1    
    89   45  111 1    
    90   46  112 1    
    91   46  113 1    
    92   46  114 1    
    93   47   48 2    
    94   47   49 am   BACKBONE|DICT|INTERRES
    95   49   50 1    
    96   49  115 1    
    97   50   51 1    
    98   50   52 1    
    99   50  116 1    
   100   51  117 1    
   101   51  118 1    
   102   51  119 1    
   103   52   53 2    
   104   52   54 am   BACKBONE|DICT|INTERRES
   105   54   55 1    
   106   54  120 1    
   107   55   56 1    
   108   55   57 1    
   109   55  121 1    
   110   56  122 1    
   111   56  123 1    
   112   56  124 1    
   113   57   58 2    
   114   57   59 am   BACKBONE|DICT|INTERRES
   115   59   60 1    
   116   59  125 1    
   117   60   61 1    
   118   60   62 1    
   119   60  126 1    
   120   61  127 1    
   121   61  128 1    
   122   61  129 1    
   123   62   63 2    
   124   62   64 am   BACKBONE|DICT|INTERRES
   125   64   65 1    
   126   64  130 1    
   127   65   66 1    
   128   65   69 1    
   129   65  131 1    
   130   66   67 am   BACKBONE|DICT|INTERRES
   131   66   68 2    
   132   67  132 1    
   133   67  133 1    
   134   69   70 1    
   135   69  134 1    
   136   69  135 1    
   137   70   71 1    
   138   71  136 1    
   139   71  137 1    
@<TRIPOS>SUBSTRUCTURE
     1 UNK         1 GROUP             0       ****    0 ROOT    
