@<TRIPOS>MOLECULE
3R136
137   139    1
SMALL
USER_CHARGES


@<TRIPOS>ATOM
      1 CA         30.6569   29.5698   -3.0291 C.3       0 UNK        -0.1979 
      2 C          29.6012   28.7494   -2.3044 C.2       0 UNK         0.4864 
      3 O          28.4724   29.2130   -2.1358 O.2       0 UNK        -0.5359 
      4 N          29.9443   27.5220   -1.8903 N.am      1 UNK        -0.4318 
      5 CA         29.0913   26.6023   -1.1210 C.3       1 UNK         0.0824 
      6 C6         29.9256   25.5982   -0.2871 C.3       12 UNK        -0.0944 
      7 S7         30.9827   26.4669    0.9212 S.3       12 UNK        -0.2672 
      8 C8         32.4695   25.4205    0.9473 C.3       12 UNK         0.0333 
      9 C9         32.5062   24.5768    2.2099 C.ar      12 UNK        -0.0807 
     10 C10        33.3348   24.9498    3.2714 C.ar      12 UNK        -0.0894 
     11 C11        33.3691   24.1926    4.4448 C.ar      12 UNK        -0.0804 
     12 C12        32.5557   23.0609    4.5549 C.ar      12 UNK        -0.0824 
     13 C13        31.7253   22.6716    3.4977 C.ar      12 UNK        -0.0762 
     14 C14        31.7166   23.4278    2.3202 C.ar      12 UNK        -0.0782 
     15 C15        30.8610   21.4200    3.6362 C.3       12 UNK         0.0230 
     16 S16        29.1004   21.6781    3.2210 S.3       12 UNK        -0.2608 
     17 C17        28.6629   23.1315    4.2333 C.3       12 UNK        -0.0989 
     18 CA         28.2715   24.3242    3.3271 C.3       5 UNK         0.0716 
     19 N          26.9666   24.1126    2.6950 N.am      5 UNK        -0.4135 
     20 C          26.4000   24.9125    1.7831 C.2       4 UNK         0.5031 
     21 O          26.9383   25.9307    1.3405 O.2       4 UNK        -0.5229 
     22 CA         25.0251   24.4495    1.2565 C.3       4 UNK         0.0329 
     23 CB         24.0115   24.1972    2.3954 C.3       4 UNK        -0.2001 
     24 N          24.4668   25.3475    0.2382 N.am      4 UNK        -0.4303 
     25 C          24.0296   26.6066    0.3887 C.2       3 UNK         0.5044 
     26 O          23.9225   27.1801    1.4741 O.2       3 UNK        -0.5152 
     27 CA         23.6627   27.3499   -0.9120 C.3       3 UNK         0.0319 
     28 CB         23.3408   28.8382   -0.6780 C.3       3 UNK        -0.2001 
     29 N          24.7422   27.2509   -1.8977 N.am      3 UNK        -0.4354 
     30 C          24.9097   26.2473   -2.7708 C.2       2 UNK         0.4964 
     31 O          24.1410   25.2908   -2.8676 O.2       2 UNK        -0.5047 
     32 CA         26.1790   26.2930   -3.6339 C.3       2 UNK         0.0288 
     33 CB         26.0018   27.2516   -4.8226 C.3       2 UNK        -0.2113 
     34 N          27.3369   26.7043   -2.8406 N.am      2 UNK        -0.4145 
     35 C          28.0046   25.9183   -1.9856 C.2       1 UNK         0.5006 
     36 O          27.7858   24.7103   -1.8713 O.2       1 UNK        -0.5103 
     37 C          28.3366   25.6498    4.1070 C.2       5 UNK         0.5055 
     38 O          27.3470   26.0604    4.7171 O.2       5 UNK        -0.5220 
     39 N          29.5254   26.2655    4.0739 N.am      6 UNK        -0.4450 
     40 CA         29.9140   27.5294    4.7068 C.3       6 UNK         0.0367 
     41 CB         29.6664   27.5125    6.2300 C.3       6 UNK        -0.1929 
     42 C          29.3463   28.7976    4.0449 C.2       6 UNK         0.5070 
     43 O          29.7067   29.8917    4.4798 O.2       6 UNK        -0.5237 
     44 N          28.5434   28.6751    2.9752 N.am      7 UNK        -0.4739 
     45 CA         28.0084   29.8204    2.2220 C.3       7 UNK         0.0276 
     46 CB         26.8843   29.3594    1.2825 C.3       7 UNK        -0.1927 
     47 C          29.0836   30.6250    1.4623 C.2       7 UNK         0.5013 
     48 O          28.8404   31.7838    1.1253 O.2       7 UNK        -0.5193 
     49 N          30.2679   30.0269    1.2623 N.am      8 UNK        -0.4253 
     50 CA         31.4805   30.6940    0.7803 C.3       8 UNK         0.0242 
     51 CB         32.4845   29.6285    0.3063 C.3       8 UNK        -0.2000 
     52 C          32.1499   31.6083    1.8278 C.2       8 UNK         0.4948 
     53 O          33.1242   32.2772    1.4833 O.2       8 UNK        -0.5275 
     54 N          31.6850   31.5876    3.0887 N.am      9 UNK        -0.4246 
     55 CA         32.1616   32.3370    4.2641 C.3       9 UNK         0.0261 
     56 CB         32.0888   33.8595    4.0365 C.3       9 UNK        -0.1959 
     57 C          33.5489   31.9202    4.7896 C.2       9 UNK         0.5033 
     58 O          33.7771   32.0040    5.9972 O.2       9 UNK        -0.5390 
     59 N          34.4332   31.4407    3.9043 N.am      10 UNK        -0.4215 
     60 CA         35.7947   30.9649    4.1841 C.3       10 UNK         0.0240 
     61 CB         36.4538   30.5466    2.8594 C.3       10 UNK        -0.1982 
     62 C          35.8913   29.8205    5.2136 C.2       10 UNK         0.4970 
     63 O          36.9495   29.6482    5.8195 O.2       10 UNK        -0.4916 
     64 N          34.7943   29.0762    5.4028 N.am      11 UNK        -0.4279 
     65 CA         34.6213   28.0769    6.4666 C.3       11 UNK         0.1003 
     66 C          34.5629   28.6775    7.9060 C.2       11 UNK         0.5709 
     67 N          34.3015   29.9688    8.0817 N.am      11 UNK        -0.7358 
     68 O          34.7773   27.9634    8.8822 O.2       11 UNK        -0.4999 
     69 C69        33.3916   27.1805    6.1603 C.3       12 UNK        -0.0954 
     70 S70        33.4865   25.5143    6.8940 S.3       12 UNK        -0.2268 
     71 C71        34.3147   24.5699    5.5773 C.3       12 UNK         0.0203 
     72 H72        30.8235   30.5104   -2.5051 H         1 UNK         0.0888 
     73 H73        31.6093   29.0440   -3.0940 H         1 UNK         0.0888 
     74 H74        30.3245   29.7980   -4.0414 H         1 UNK         0.0888 
     75 H75        30.8749   27.1802   -2.0823 H         1 UNK         0.3017 
     76 H76        28.5376   27.2024   -0.4014 H         1 UNK         0.0873 
     77 H77        30.5283   24.9742   -0.9483 H         1 UNK         0.0745 
     78 H78        29.2779   24.9188    0.2679 H         1 UNK         0.0745 
     79 H79        32.5228   24.7793    0.0671 H         1 UNK         0.0705 
     80 H80        33.3461   26.0684    0.8978 H         1 UNK         0.0705 
     81 H81        33.9617   25.8263    3.1802 H         1 UNK         0.1334 
     82 H82        32.5821   22.4761    5.4646 H         1 UNK         0.1417 
     83 H83        31.0821   23.1315    1.4957 H         1 UNK         0.1562 
     84 H84        30.9156   21.0264    4.6524 H         1 UNK         0.0748 
     85 H85        31.2636   20.6423    2.9861 H         1 UNK         0.0748 
     86 H86        29.5039   23.3822    4.8829 H         1 UNK         0.0940 
     87 H87        27.8441   22.8674    4.9052 H         1 UNK         0.0940 
     88 H88        28.9995   24.3964    2.5178 H         1 UNK         0.0703 
     89 H89        26.4627   23.2933    2.9985 H         1 UNK         0.3081 
     90 H90        25.1959   23.5013    0.7445 H         1 UNK         0.0719 
     91 H91        23.9097   25.0650    3.0482 H         1 UNK         0.0809 
     92 H92        23.0236   23.9583    2.0014 H         1 UNK         0.0809 
     93 H93        24.3143   23.3575    3.0212 H         1 UNK         0.0809 
     94 H94        24.5135   25.0010   -0.7123 H         1 UNK         0.2990 
     95 H95        22.7633   26.8758   -1.3106 H         1 UNK         0.0690 
     96 H96        23.0590   29.3338   -1.6072 H         1 UNK         0.0788 
     97 H97        24.1915   29.3742   -0.2560 H         1 UNK         0.0788 
     98 H98        22.5058   28.9538    0.0143 H         1 UNK         0.0788 
     99 H99        25.4478   27.9719   -1.8580 H         1 UNK         0.2993 
    100 H100       26.3576   25.2888   -4.0254 H         1 UNK         0.0949 
    101 H101       26.8788   27.2431   -5.4703 H         1 UNK         0.0767 
    102 H102       25.1458   26.9608   -5.4333 H         1 UNK         0.0767 
    103 H103       25.8371   28.2794   -4.4963 H         1 UNK         0.0767 
    104 H104       27.5876   27.6900   -2.8469 H         1 UNK         0.3013 
    105 H105       30.2555   25.8361    3.5192 H         1 UNK         0.3121 
    106 H106       30.9908   27.5949    4.5544 H         1 UNK         0.0774 
    107 H107       30.1051   28.3899    6.7067 H         1 UNK         0.0815 
    108 H108       28.6037   27.5187    6.4722 H         1 UNK         0.0815 
    109 H109       30.1136   26.6340    6.6955 H         1 UNK         0.0815 
    110 H110       28.2731   27.7510    2.6634 H         1 UNK         0.2987 
    111 H111       27.5650   30.5056    2.9482 H         1 UNK         0.0949 
    112 H112       27.2480   28.6993    0.4995 H         1 UNK         0.0806 
    113 H113       26.1026   28.8310    1.8284 H         1 UNK         0.0806 
    114 H114       26.4164   30.2128    0.7903 H         1 UNK         0.0806 
    115 H115       30.3623   29.0614    1.5453 H         1 UNK         0.3010 
    116 H116       31.2117   31.3206   -0.0725 H         1 UNK         0.0829 
    117 H117       32.0556   28.9846   -0.4592 H         1 UNK         0.0813 
    118 H118       33.3724   30.0905   -0.1275 H         1 UNK         0.0813 
    119 H119       32.8180   28.9935    1.1281 H         1 UNK         0.0813 
    120 H120       30.9071   30.9673    3.2948 H         1 UNK         0.3038 
    121 H121       31.4544   32.0954    5.0595 H         1 UNK         0.0769 
    122 H122       31.0896   34.1663    3.7274 H         1 UNK         0.0811 
    123 H123       32.7941   34.1953    3.2760 H         1 UNK         0.0811 
    124 H124       32.3243   34.3999    4.9544 H         1 UNK         0.0811 
    125 H125       34.1605   31.5004    2.9272 H         1 UNK         0.3204 
    126 H126       36.3520   31.8094    4.5943 H         1 UNK         0.0748 
    127 H127       36.4895   31.3773    2.1539 H         1 UNK         0.0771 
    128 H128       37.4811   30.2158    3.0191 H         1 UNK         0.0771 
    129 H129       35.9160   29.7254    2.3836 H         1 UNK         0.0771 
    130 H130       33.9725   29.3022    4.8650 H         1 UNK         0.2980 
    131 H131       35.5117   27.4461    6.4358 H         1 UNK         0.0545 
    132 H132       34.1374   30.5891    7.2947 H         1 UNK         0.3459 
    133 H133       34.2766   30.3381    9.0185 H         1 UNK         0.3459 
    134 H134       33.2656   27.0629    5.0849 H         1 UNK         0.0616 
    135 H135       32.4777   27.6600    6.5107 H         1 UNK         0.0616 
    136 H136       35.1636   25.1409    5.1978 H         1 UNK         0.0634 
    137 H137       34.7341   23.6624    6.0141 H         1 UNK         0.0634 
@<TRIPOS>BOND
     1    1    2 1    
     2    1   72 1    
     3    1   73 1    
     4    1   74 1    
     5    2    3 2    
     6    2    4 am   BACKBONE|DICT|INTERRES
     7    4    5 1    
     8    4   75 1    
     9    5    6 1    
    10    5   35 1    
    11    5   76 1    
    12    6    7 1    
    13    6   77 1    
    14    6   78 1    
    15    7    8 1    
    16    8    9 1    
    17    8   79 1    
    18    8   80 1    
    19    9   10 ar   
    20    9   14 ar   
    21   10   11 ar   
    22   10   81 1    
    23   11   12 ar   
    24   11   71 1    
    25   12   13 ar   
    26   12   82 1    
    27   13   14 ar   
    28   13   15 1    
    29   14   83 1    
    30   15   16 1    
    31   15   84 1    
    32   15   85 1    
    33   16   17 1    
    34   17   18 1    
    35   17   86 1    
    36   17   87 1    
    37   18   19 1    
    38   18   37 1    
    39   18   88 1    
    40   19   20 am   BACKBONE|DICT|INTERRES
    41   19   89 1    
    42   20   21 2    
    43   20   22 1    
    44   22   23 1    
    45   22   24 1    
    46   22   90 1    
    47   23   91 1    
    48   23   92 1    
    49   23   93 1    
    50   24   25 am   BACKBONE|DICT|INTERRES
    51   24   94 1    
    52   25   26 2    
    53   25   27 1    
    54   27   28 1    
    55   27   29 1    
    56   27   95 1    
    57   28   96 1    
    58   28   97 1    
    59   28   98 1    
    60   29   30 am   BACKBONE|DICT|INTERRES
    61   29   99 1    
    62   30   31 2    
    63   30   32 1    
    64   32   33 1    
    65   32   34 1    
    66   32  100 1    
    67   33  101 1    
    68   33  102 1    
    69   33  103 1    
    70   34   35 am   BACKBONE|DICT|INTERRES
    71   34  104 1    
    72   35   36 2    
    73   37   38 2    
    74   37   39 am   BACKBONE|DICT|INTERRES
    75   39   40 1    
    76   39  105 1    
    77   40   41 1    
    78   40   42 1    
    79   40  106 1    
    80   41  107 1    
    81   41  108 1    
    82   41  109 1    
    83   42   43 2    
    84   42   44 am   BACKBONE|DICT|INTERRES
    85   44   45 1    
    86   44  110 1    
    87   45   46 1    
    88   45   47 1    
    89   45  111 1    
    90   46  112 1    
    91   46  113 1    
    92   46  114 1    
    93   47   48 2    
    94   47   49 am   BACKBONE|DICT|INTERRES
    95   49   50 1    
    96   49  115 1    
    97   50   51 1    
    98   50   52 1    
    99   50  116 1    
   100   51  117 1    
   101   51  118 1    
   102   51  119 1    
   103   52   53 2    
   104   52   54 am   BACKBONE|DICT|INTERRES
   105   54   55 1    
   106   54  120 1    
   107   55   56 1    
   108   55   57 1    
   109   55  121 1    
   110   56  122 1    
   111   56  123 1    
   112   56  124 1    
   113   57   58 2    
   114   57   59 am   BACKBONE|DICT|INTERRES
   115   59   60 1    
   116   59  125 1    
   117   60   61 1    
   118   60   62 1    
   119   60  126 1    
   120   61  127 1    
   121   61  128 1    
   122   61  129 1    
   123   62   63 2    
   124   62   64 am   BACKBONE|DICT|INTERRES
   125   64   65 1    
   126   64  130 1    
   127   65   66 1    
   128   65   69 1    
   129   65  131 1    
   130   66   67 am   BACKBONE|DICT|INTERRES
   131   66   68 2    
   132   67  132 1    
   133   67  133 1    
   134   69   70 1    
   135   69  134 1    
   136   69  135 1    
   137   70   71 1    
   138   71  136 1    
   139   71  137 1    
@<TRIPOS>SUBSTRUCTURE
     1 UNK         1 GROUP             0       ****    0 ROOT    
