@<TRIPOS>MOLECULE
3R136
137   139    1
SMALL
USER_CHARGES


@<TRIPOS>ATOM
      1 CA         24.9638   24.8600    4.1316 C.3       0 UNK        -0.1979 
      2 C          26.0442   23.8066    3.9343 C.2       0 UNK         0.4864 
      3 O          25.8128   22.6332    4.2283 O.2       0 UNK        -0.5359 
      4 N          27.2198   24.2185    3.4431 N.am      1 UNK        -0.4318 
      5 CA         28.3586   23.3465    3.1325 C.3       1 UNK         0.0824 
      6 C6         29.6579   24.1700    2.9449 C.3       12 UNK        -0.0944 
      7 S7         31.1526   23.2828    3.5019 S.3       12 UNK        -0.2672 
      8 C8         32.0247   22.9411    1.9366 C.3       12 UNK         0.0333 
      9 C9         32.3155   24.2149    1.1551 C.ar      12 UNK        -0.0807 
     10 C10        33.2063   25.1679    1.6578 C.ar      12 UNK        -0.0894 
     11 C11        33.4069   26.3753    0.9820 C.ar      12 UNK        -0.0804 
     12 C12        32.7396   26.6100   -0.2237 C.ar      12 UNK        -0.0824 
     13 C13        31.8297   25.6734   -0.7222 C.ar      12 UNK        -0.0762 
     14 C14        31.6404   24.4679   -0.0420 C.ar      12 UNK        -0.0782 
     15 C15        30.9679   26.0071   -1.9328 C.3       12 UNK         0.0230 
     16 S16        29.8234   27.3946   -1.6021 S.3       12 UNK        -0.2608 
     17 C17        29.2659   27.0407    0.1007 C.3       12 UNK        -0.0989 
     18 CA         28.1100   27.9605    0.5489 C.3       5 UNK         0.0716 
     19 N          26.8602   27.6521   -0.1540 N.am      5 UNK        -0.4135 
     20 C          25.7806   28.4496   -0.1696 C.2       4 UNK         0.5031 
     21 O          25.7466   29.5434    0.3972 O.2       4 UNK        -0.5229 
     22 CA         24.5323   27.9825   -0.9473 C.3       4 UNK         0.0329 
     23 CB         23.9348   29.1198   -1.7974 C.3       4 UNK        -0.2001 
     24 N          24.8121   26.8412   -1.8206 N.am      4 UNK        -0.4303 
     25 C          24.1724   25.6649   -1.7955 C.2       3 UNK         0.5044 
     26 O          23.2183   25.4118   -1.0583 O.2       3 UNK        -0.5152 
     27 CA         24.7082   24.5564   -2.7274 C.3       3 UNK         0.0319 
     28 CB         25.5264   25.0875   -3.9278 C.3       3 UNK        -0.2001 
     29 N          25.4805   23.5520   -1.9821 N.am      3 UNK        -0.4354 
     30 C          26.5333   23.8005   -1.1912 C.2       2 UNK         0.4964 
     31 O          27.0202   24.9225   -1.0278 O.2       2 UNK        -0.5047 
     32 CA         27.1573   22.6155   -0.4498 C.3       2 UNK         0.0288 
     33 CB         28.3286   22.0272   -1.2595 C.3       2 UNK        -0.2113 
     34 N          27.6124   23.1480    0.8280 N.am      2 UNK        -0.4145 
     35 C          28.0610   22.4776    1.8940 C.2       1 UNK         0.5006 
     36 O          28.2094   21.2553    1.9370 O.2       1 UNK        -0.5103 
     37 C          27.9109   27.8717    2.0748 C.2       5 UNK         0.5055 
     38 O          27.3991   26.8618    2.5622 O.2       5 UNK        -0.5220 
     39 N          28.3328   28.9180    2.7957 N.am      6 UNK        -0.4450 
     40 CA         28.0690   29.1148    4.2252 C.3       6 UNK         0.0367 
     41 CB         28.1719   30.6188    4.5352 C.3       6 UNK        -0.1929 
     42 C          28.9715   28.3172    5.1861 C.2       6 UNK         0.5070 
     43 O          28.6862   28.3139    6.3831 O.2       6 UNK        -0.5237 
     44 N          30.0526   27.7025    4.6787 N.am      7 UNK        -0.4739 
     45 CA         31.0965   26.9710    5.4269 C.3       7 UNK         0.0276 
     46 CB         30.4966   25.8163    6.2638 C.3       7 UNK        -0.1927 
     47 C          31.9928   27.8727    6.3065 C.2       7 UNK         0.5013 
     48 O          32.7462   27.3584    7.1337 O.2       7 UNK        -0.5193 
     49 N          31.9099   29.1960    6.1207 N.am      8 UNK        -0.4253 
     50 CA         32.5319   30.2227    6.9623 C.3       8 UNK         0.0242 
     51 CB         31.6162   31.4620    6.9516 C.3       8 UNK        -0.2000 
     52 C          33.9750   30.5868    6.5567 C.2       8 UNK         0.4948 
     53 O          34.4254   31.6871    6.8820 O.2       8 UNK        -0.5275 
     54 N          34.6657   29.7052    5.8174 N.am      9 UNK        -0.4246 
     55 CA         35.9836   29.8707    5.1758 C.3       9 UNK         0.0261 
     56 CB         37.1008   30.1748    6.1935 C.3       9 UNK        -0.1959 
     57 C          35.9602   30.8925    4.0242 C.2       9 UNK         0.5033 
     58 O          36.3230   30.5490    2.8987 O.2       9 UNK        -0.5390 
     59 N          35.4464   32.0964    4.2997 N.am      10 UNK        -0.4215 
     60 CA         34.9165   33.0330    3.3114 C.3       10 UNK         0.0240 
     61 CB         35.0845   34.4700    3.8377 C.3       10 UNK        -0.1982 
     62 C          33.4450   32.6518    3.0739 C.2       10 UNK         0.4970 
     63 O          32.5406   33.3158    3.5818 O.2       10 UNK        -0.4916 
     64 N          33.2480   31.5195    2.3893 N.am      11 UNK        -0.4279 
     65 CA         31.9701   30.7997    2.2856 C.3       11 UNK         0.1003 
     66 C          30.8605   31.4893    1.4421 C.2       11 UNK         0.5709 
     67 N          31.1463   32.5463    0.6933 N.am      11 UNK        -0.7358 
     68 O          29.7146   31.0466    1.4775 O.2       11 UNK        -0.4999 
     69 C69        32.1810   29.3388    1.8145 C.3       12 UNK        -0.0954 
     70 S70        33.3639   28.4059    2.8442 S.3       12 UNK        -0.2268 
     71 C71        34.2863   27.4537    1.5947 C.3       12 UNK         0.0203 
     72 H72        24.1245   24.6656    3.4645 H         1 UNK         0.0888 
     73 H73        24.5980   24.8354    5.1577 H         1 UNK         0.0888 
     74 H74        25.3317   25.8657    3.9299 H         1 UNK         0.0888 
     75 H75        27.3280   25.2033    3.1973 H         1 UNK         0.3017 
     76 H76        28.4863   22.6764    3.9858 H         1 UNK         0.0873 
     77 H77        29.6098   25.0873    3.5286 H         1 UNK         0.0745 
     78 H78        29.7669   24.5198    1.9200 H         1 UNK         0.0745 
     79 H79        31.4281   22.2453    1.3441 H         1 UNK         0.0705 
     80 H80        32.9636   22.4316    2.1571 H         1 UNK         0.0705 
     81 H81        33.7044   24.9902    2.6013 H         1 UNK         0.1334 
     82 H82        32.8702   27.5508   -0.7403 H         1 UNK         0.1417 
     83 H83        30.9249   23.7484   -0.4138 H         1 UNK         0.1562 
     84 H84        30.3804   25.1402   -2.2400 H         1 UNK         0.0748 
     85 H85        31.6076   26.2623   -2.7786 H         1 UNK         0.0748 
     86 H86        30.1242   27.1625    0.7609 H         1 UNK         0.0940 
     87 H87        28.9828   25.9913    0.1766 H         1 UNK         0.0940 
     88 H88        28.3811   28.9891    0.3011 H         1 UNK         0.0703 
     89 H89        26.8143   26.7321   -0.5852 H         1 UNK         0.3081 
     90 H90        23.7970   27.7040   -0.1898 H         1 UNK         0.0719 
     91 H91        23.6526   29.9715   -1.1771 H         1 UNK         0.0809 
     92 H92        24.6441   29.4789   -2.5440 H         1 UNK         0.0809 
     93 H93        23.0355   28.7925   -2.3194 H         1 UNK         0.0809 
     94 H94        25.6039   26.9356   -2.4416 H         1 UNK         0.2990 
     95 H95        23.8319   24.0448   -3.1289 H         1 UNK         0.0690 
     96 H96        25.7650   24.2803   -4.6203 H         1 UNK         0.0788 
     97 H97        26.4698   25.5433   -3.6249 H         1 UNK         0.0788 
     98 H98        24.9619   25.8323   -4.4906 H         1 UNK         0.0788 
     99 H99        25.1337   22.6043   -2.0400 H         1 UNK         0.2993 
    100 H100       26.4004   21.8505   -0.2655 H         1 UNK         0.0949 
    101 H101       27.9766   21.6181   -2.2073 H         1 UNK         0.0767 
    102 H102       29.0764   22.7853   -1.4926 H         1 UNK         0.0767 
    103 H103       28.8253   21.2175   -0.7252 H         1 UNK         0.0767 
    104 H104       27.5085   24.1534    0.8910 H         1 UNK         0.3013 
    105 H105       28.7501   29.7068    2.3034 H         1 UNK         0.3121 
    106 H106       27.0421   28.8001    4.4247 H         1 UNK         0.0774 
    107 H107       27.9231   30.8247    5.5773 H         1 UNK         0.0815 
    108 H108       29.1775   31.0019    4.3593 H         1 UNK         0.0815 
    109 H109       27.4818   31.1979    3.9211 H         1 UNK         0.0815 
    110 H110       30.1968   27.7677    3.6815 H         1 UNK         0.2987 
    111 H111       31.7493   26.5254    4.6742 H         1 UNK         0.0949 
    112 H112       31.2740   25.1112    6.5603 H         1 UNK         0.0806 
    113 H113       29.7416   25.2525    5.7204 H         1 UNK         0.0806 
    114 H114       30.0308   26.1812    7.1798 H         1 UNK         0.0806 
    115 H115       31.2844   29.5223    5.4006 H         1 UNK         0.3010 
    116 H116       32.5801   29.8523    7.9886 H         1 UNK         0.0829 
    117 H117       31.5715   31.9217    5.9631 H         1 UNK         0.0813 
    118 H118       30.5989   31.2076    7.2506 H         1 UNK         0.0813 
    119 H119       31.9715   32.2225    7.6483 H         1 UNK         0.0813 
    120 H120       34.1922   28.8405    5.5935 H         1 UNK         0.3038 
    121 H121       36.2107   28.9021    4.7271 H         1 UNK         0.0769 
    122 H122       38.0762   30.1779    5.7054 H         1 UNK         0.0811 
    123 H123       37.1346   29.4207    6.9798 H         1 UNK         0.0811 
    124 H124       36.9772   31.1481    6.6686 H         1 UNK         0.0811 
    125 H125       35.1304   32.2318    5.2593 H         1 UNK         0.3204 
    126 H126       35.4594   32.9438    2.3679 H         1 UNK         0.0748 
    127 H127       34.6714   35.1936    3.1337 H         1 UNK         0.0771 
    128 H128       34.5781   34.6157    4.7930 H         1 UNK         0.0771 
    129 H129       36.1369   34.7174    3.9780 H         1 UNK         0.0771 
    130 H130       34.0564   31.0262    2.0358 H         1 UNK         0.2980 
    131 H131       31.5668   30.7515    3.2987 H         1 UNK         0.0545 
    132 H132       32.0814   32.9190    0.6690 H         1 UNK         0.3459 
    133 H133       30.4131   32.9815    0.1567 H         1 UNK         0.3459 
    134 H134       31.2388   28.7933    1.8347 H         1 UNK         0.0616 
    135 H135       32.5193   29.3343    0.7777 H         1 UNK         0.0616 
    136 H136       34.6742   28.1269    0.8287 H         1 UNK         0.0634 
    137 H137       35.1547   26.9957    2.0702 H         1 UNK         0.0634 
@<TRIPOS>BOND
     1    1    2 1    
     2    1   72 1    
     3    1   73 1    
     4    1   74 1    
     5    2    3 2    
     6    2    4 am   BACKBONE|DICT|INTERRES
     7    4    5 1    
     8    4   75 1    
     9    5    6 1    
    10    5   35 1    
    11    5   76 1    
    12    6    7 1    
    13    6   77 1    
    14    6   78 1    
    15    7    8 1    
    16    8    9 1    
    17    8   79 1    
    18    8   80 1    
    19    9   10 ar   
    20    9   14 ar   
    21   10   11 ar   
    22   10   81 1    
    23   11   12 ar   
    24   11   71 1    
    25   12   13 ar   
    26   12   82 1    
    27   13   14 ar   
    28   13   15 1    
    29   14   83 1    
    30   15   16 1    
    31   15   84 1    
    32   15   85 1    
    33   16   17 1    
    34   17   18 1    
    35   17   86 1    
    36   17   87 1    
    37   18   19 1    
    38   18   37 1    
    39   18   88 1    
    40   19   20 am   BACKBONE|DICT|INTERRES
    41   19   89 1    
    42   20   21 2    
    43   20   22 1    
    44   22   23 1    
    45   22   24 1    
    46   22   90 1    
    47   23   91 1    
    48   23   92 1    
    49   23   93 1    
    50   24   25 am   BACKBONE|DICT|INTERRES
    51   24   94 1    
    52   25   26 2    
    53   25   27 1    
    54   27   28 1    
    55   27   29 1    
    56   27   95 1    
    57   28   96 1    
    58   28   97 1    
    59   28   98 1    
    60   29   30 am   BACKBONE|DICT|INTERRES
    61   29   99 1    
    62   30   31 2    
    63   30   32 1    
    64   32   33 1    
    65   32   34 1    
    66   32  100 1    
    67   33  101 1    
    68   33  102 1    
    69   33  103 1    
    70   34   35 am   BACKBONE|DICT|INTERRES
    71   34  104 1    
    72   35   36 2    
    73   37   38 2    
    74   37   39 am   BACKBONE|DICT|INTERRES
    75   39   40 1    
    76   39  105 1    
    77   40   41 1    
    78   40   42 1    
    79   40  106 1    
    80   41  107 1    
    81   41  108 1    
    82   41  109 1    
    83   42   43 2    
    84   42   44 am   BACKBONE|DICT|INTERRES
    85   44   45 1    
    86   44  110 1    
    87   45   46 1    
    88   45   47 1    
    89   45  111 1    
    90   46  112 1    
    91   46  113 1    
    92   46  114 1    
    93   47   48 2    
    94   47   49 am   BACKBONE|DICT|INTERRES
    95   49   50 1    
    96   49  115 1    
    97   50   51 1    
    98   50   52 1    
    99   50  116 1    
   100   51  117 1    
   101   51  118 1    
   102   51  119 1    
   103   52   53 2    
   104   52   54 am   BACKBONE|DICT|INTERRES
   105   54   55 1    
   106   54  120 1    
   107   55   56 1    
   108   55   57 1    
   109   55  121 1    
   110   56  122 1    
   111   56  123 1    
   112   56  124 1    
   113   57   58 2    
   114   57   59 am   BACKBONE|DICT|INTERRES
   115   59   60 1    
   116   59  125 1    
   117   60   61 1    
   118   60   62 1    
   119   60  126 1    
   120   61  127 1    
   121   61  128 1    
   122   61  129 1    
   123   62   63 2    
   124   62   64 am   BACKBONE|DICT|INTERRES
   125   64   65 1    
   126   64  130 1    
   127   65   66 1    
   128   65   69 1    
   129   65  131 1    
   130   66   67 am   BACKBONE|DICT|INTERRES
   131   66   68 2    
   132   67  132 1    
   133   67  133 1    
   134   69   70 1    
   135   69  134 1    
   136   69  135 1    
   137   70   71 1    
   138   71  136 1    
   139   71  137 1    
@<TRIPOS>SUBSTRUCTURE
     1 UNK         1 GROUP             0       ****    0 ROOT    
