@<TRIPOS>MOLECULE
3R136
137   139    1
SMALL
USER_CHARGES


@<TRIPOS>ATOM
      1 CA         28.0551   24.6782    3.6705 C.3       0 UNK        -0.1979 
      2 C          28.0705   23.3289    2.9692 C.2       0 UNK         0.4864 
      3 O          27.1072   22.5708    3.0873 O.2       0 UNK        -0.5359 
      4 N          29.1526   23.0208    2.2404 N.am      1 UNK        -0.4318 
      5 CA         29.3301   21.7539    1.5146 C.3       1 UNK         0.0824 
      6 C6         30.8173   21.4565    1.1966 C.3       12 UNK        -0.0944 
      7 S7         31.8396   21.3178    2.7043 S.3       12 UNK        -0.2672 
      8 C8         33.0616   22.6496    2.4786 C.3       12 UNK         0.0333 
      9 C9         32.4295   24.0265    2.6098 C.ar      12 UNK        -0.0807 
     10 C10        32.1792   24.5688    3.8738 C.ar      12 UNK        -0.0894 
     11 C11        31.5883   25.8297    4.0006 C.ar      12 UNK        -0.0804 
     12 C12        31.2538   26.5506    2.8500 C.ar      12 UNK        -0.0824 
     13 C13        31.4838   26.0088    1.5809 C.ar      12 UNK        -0.0762 
     14 C14        32.0872   24.7547    1.4679 C.ar      12 UNK        -0.0782 
     15 C15        31.0714   26.7581    0.3231 C.3       12 UNK         0.0230 
     16 S16        29.4760   26.1487   -0.3089 S.3       12 UNK        -0.2608 
     17 C17        28.3140   27.0004    0.8059 C.3       12 UNK        -0.0989 
     18 CA         27.5829   28.1674    0.1003 C.3       5 UNK         0.0716 
     19 N          26.6633   27.6900   -0.9354 N.am      5 UNK        -0.4135 
     20 C          26.1441   28.4623   -1.9007 C.2       4 UNK         0.5031 
     21 O          26.3784   29.6681   -2.0026 O.2       4 UNK        -0.5229 
     22 CA         25.2481   27.7968   -2.9648 C.3       4 UNK         0.0329 
     23 CB         25.9746   27.7488   -4.3200 C.3       4 UNK        -0.2001 
     24 N          24.8222   26.4405   -2.6168 N.am      4 UNK        -0.4303 
     25 C          23.8270   26.1392   -1.7722 C.2       3 UNK         0.5044 
     26 O          23.1132   26.9812   -1.2268 O.2       3 UNK        -0.5152 
     27 CA         23.5887   24.6440   -1.4793 C.3       3 UNK         0.0319 
     28 CB         22.4164   24.1136   -2.3210 C.3       3 UNK        -0.2001 
     29 N          24.7623   23.7849   -1.6931 N.am      3 UNK        -0.4354 
     30 C          25.9114   23.8816   -1.0112 C.2       2 UNK         0.4964 
     31 O          26.1264   24.7453   -0.1590 O.2       2 UNK        -0.5047 
     32 CA         27.0154   22.8836   -1.3761 C.3       2 UNK         0.0288 
     33 CB         27.7749   23.3443   -2.6324 C.3       2 UNK        -0.2113 
     34 N          27.9471   22.7904   -0.2553 N.am      2 UNK        -0.4145 
     35 C          28.4667   21.6581    0.2354 C.2       1 UNK         0.5006 
     36 O          28.2839   20.5521   -0.2776 O.2       1 UNK        -0.5103 
     37 C          26.8778   29.0460    1.1506 C.2       5 UNK         0.5055 
     38 O          25.6805   28.8921    1.4049 O.2       5 UNK        -0.5220 
     39 N          27.6834   29.8950    1.7936 N.am      6 UNK        -0.4450 
     40 CA         27.3873   30.5889    3.0410 C.3       6 UNK         0.0367 
     41 CB         27.3923   32.1061    2.7897 C.3       6 UNK        -0.1929 
     42 C          28.4873   30.2008    4.0385 C.2       6 UNK         0.5070 
     43 O          29.5544   29.7401    3.6229 O.2       6 UNK        -0.5237 
     44 N          28.2315   30.4080    5.3342 N.am      7 UNK        -0.4739 
     45 CA         29.1556   30.0892    6.4281 C.3       7 UNK         0.0276 
     46 CB         28.3399   29.8546    7.7138 C.3       7 UNK        -0.1927 
     47 C          30.2556   31.1587    6.6065 C.2       7 UNK         0.5013 
     48 O          30.4172   31.6938    7.7054 O.2       7 UNK        -0.5193 
     49 N          30.9768   31.4718    5.5246 N.am      8 UNK        -0.4253 
     50 CA         32.0434   32.4681    5.4641 C.3       8 UNK         0.0242 
     51 CB         31.4427   33.8886    5.4713 C.3       8 UNK        -0.2000 
     52 C          32.8769   32.2468    4.1968 C.2       8 UNK         0.4948 
     53 O          32.4065   31.5962    3.2597 O.2       8 UNK        -0.5275 
     54 N          34.0890   32.8207    4.1834 N.am      9 UNK        -0.4246 
     55 CA         35.0784   32.8721    3.0942 C.3       9 UNK         0.0261 
     56 CB         34.5267   33.6209    1.8642 C.3       9 UNK        -0.1959 
     57 C          35.6688   31.5065    2.7012 C.2       9 UNK         0.5033 
     58 O          36.8869   31.3344    2.7587 O.2       9 UNK        -0.5390 
     59 N          34.8017   30.5589    2.3303 N.am      10 UNK        -0.4215 
     60 CA         35.1416   29.1645    2.0343 C.3       10 UNK         0.0240 
     61 CB         34.0084   28.5518    1.1980 C.3       10 UNK        -0.1982 
     62 C          35.3843   28.3262    3.3038 C.2       10 UNK         0.4970 
     63 O          35.9607   27.2420    3.2103 O.2       10 UNK        -0.4916 
     64 N          34.9439   28.8397    4.4547 N.am      11 UNK        -0.4279 
     65 CA         35.0325   28.2269    5.7797 C.3       11 UNK         0.1003 
     66 C          35.0944   29.3195    6.8810 C.2       11 UNK         0.5709 
     67 N          35.4192   28.9436    8.1104 N.am      11 UNK        -0.7358 
     68 O          34.8517   30.5014    6.6356 O.2       11 UNK        -0.4999 
     69 C69        33.9060   27.1817    6.0119 C.3       12 UNK        -0.0954 
     70 S70        32.2287   27.8704    5.7914 S.3       12 UNK        -0.2268 
     71 C71        31.2597   26.3882    5.3788 C.3       12 UNK         0.0203 
     72 H72        28.2226   24.5488    4.7393 H         1 UNK         0.0888 
     73 H73        28.8238   25.3417    3.2817 H         1 UNK         0.0888 
     74 H74        27.0902   25.1652    3.5309 H         1 UNK         0.0888 
     75 H75        29.9348   23.6614    2.2034 H         1 UNK         0.3017 
     76 H76        28.9768   20.9540    2.1694 H         1 UNK         0.0873 
     77 H77        30.9082   20.5066    0.6657 H         1 UNK         0.0745 
     78 H78        31.2278   22.2104    0.5245 H         1 UNK         0.0745 
     79 H79        33.5512   22.5361    1.5100 H         1 UNK         0.0705 
     80 H80        33.8455   22.5380    3.2291 H         1 UNK         0.0705 
     81 H81        32.4329   24.0002    4.7581 H         1 UNK         0.1334 
     82 H82        30.7980   27.5260    2.9507 H         1 UNK         0.1417 
     83 H83        32.2744   24.3412    0.4861 H         1 UNK         0.1562 
     84 H84        31.8314   26.6244   -0.4482 H         1 UNK         0.0748 
     85 H85        31.0117   27.8318    0.5077 H         1 UNK         0.0748 
     86 H86        28.8623   27.3566    1.6779 H         1 UNK         0.0940 
     87 H87        27.5980   26.2775    1.1961 H         1 UNK         0.0940 
     88 H88        28.3335   28.7904   -0.3925 H         1 UNK         0.0703 
     89 H89        26.3984   26.7141   -0.8760 H         1 UNK         0.3081 
     90 H90        24.3603   28.4230   -3.0775 H         1 UNK         0.0719 
     91 H91        26.2736   28.7481   -4.6396 H         1 UNK         0.0809 
     92 H92        25.3326   27.3410   -5.1011 H         1 UNK         0.0809 
     93 H93        26.8777   27.1387   -4.2729 H         1 UNK         0.0809 
     94 H94        25.3463   25.6799   -3.0237 H         1 UNK         0.2990 
     95 H95        23.3136   24.5656   -0.4253 H         1 UNK         0.0690 
     96 H96        22.1675   23.0863   -2.0539 H         1 UNK         0.0788 
     97 H97        22.6409   24.1399   -3.3881 H         1 UNK         0.0788 
     98 H98        21.5187   24.7130   -2.1623 H         1 UNK         0.0788 
     99 H99        24.6685   23.0602   -2.3910 H         1 UNK         0.2993 
    100 H100       26.5501   21.9130   -1.5626 H         1 UNK         0.0949 
    101 H101       27.1120   23.4018   -3.4965 H         1 UNK         0.0767 
    102 H102       28.2219   24.3299   -2.4951 H         1 UNK         0.0767 
    103 H103       28.5753   22.6487   -2.8855 H         1 UNK         0.0767 
    104 H104       28.0847   23.6552    0.2520 H         1 UNK         0.3013 
    105 H105       28.6720   29.8796    1.5758 H         1 UNK         0.3121 
    106 H106       26.4193   30.2794    3.4414 H         1 UNK         0.0774 
    107 H107       27.1602   32.6567    3.7021 H         1 UNK         0.0815 
    108 H108       28.3642   32.4543    2.4365 H         1 UNK         0.0815 
    109 H109       26.6467   32.3847    2.0449 H         1 UNK         0.0815 
    110 H110       27.3517   30.8294    5.5974 H         1 UNK         0.2987 
    111 H111       29.6609   29.1516    6.1918 H         1 UNK         0.0949 
    112 H112       27.6090   29.0569    7.5803 H         1 UNK         0.0806 
    113 H113       28.9886   29.5595    8.5397 H         1 UNK         0.0806 
    114 H114       27.8051   30.7534    8.0232 H         1 UNK         0.0806 
    115 H115       30.8091   30.9663    4.6565 H         1 UNK         0.3010 
    116 H116       32.6941   32.3362    6.3313 H         1 UNK         0.0829 
    117 H117       30.8859   34.0848    6.3875 H         1 UNK         0.0813 
    118 H118       32.2213   34.6492    5.4033 H         1 UNK         0.0813 
    119 H119       30.7646   34.0395    4.6302 H         1 UNK         0.0813 
    120 H120       34.3809   33.2902    5.0302 H         1 UNK         0.3038 
    121 H121       35.9079   33.4651    3.4834 H         1 UNK         0.0769 
    122 H122       33.6771   33.1067    1.4141 H         1 UNK         0.0811 
    123 H123       35.2916   33.7173    1.0925 H         1 UNK         0.0811 
    124 H124       34.2046   34.6284    2.1273 H         1 UNK         0.0811 
    125 H125       33.8120   30.7984    2.3847 H         1 UNK         0.3204 
    126 H126       36.0599   29.1426    1.4438 H         1 UNK         0.0748 
    127 H127       34.2082   27.5038    0.9695 H         1 UNK         0.0771 
    128 H128       33.0582   28.5961    1.7309 H         1 UNK         0.0771 
    129 H129       33.8863   29.0744    0.2492 H         1 UNK         0.0771 
    130 H130       34.5176   29.7552    4.4539 H         1 UNK         0.2980 
    131 H131       35.9915   27.7081    5.8316 H         1 UNK         0.0545 
    132 H132       35.6204   27.9801    8.3272 H         1 UNK         0.3459 
    133 H133       35.4625   29.6403    8.8375 H         1 UNK         0.3459 
    134 H134       33.9765   26.7432    7.0084 H         1 UNK         0.0616 
    135 H135       34.0410   26.3543    5.3146 H         1 UNK         0.0616 
    136 H136       31.4124   25.6360    6.1542 H         1 UNK         0.0634 
    137 H137       30.2007   26.6481    5.4088 H         1 UNK         0.0634 
@<TRIPOS>BOND
     1    1    2 1    
     2    1   72 1    
     3    1   73 1    
     4    1   74 1    
     5    2    3 2    
     6    2    4 am   BACKBONE|DICT|INTERRES
     7    4    5 1    
     8    4   75 1    
     9    5    6 1    
    10    5   35 1    
    11    5   76 1    
    12    6    7 1    
    13    6   77 1    
    14    6   78 1    
    15    7    8 1    
    16    8    9 1    
    17    8   79 1    
    18    8   80 1    
    19    9   10 ar   
    20    9   14 ar   
    21   10   11 ar   
    22   10   81 1    
    23   11   12 ar   
    24   11   71 1    
    25   12   13 ar   
    26   12   82 1    
    27   13   14 ar   
    28   13   15 1    
    29   14   83 1    
    30   15   16 1    
    31   15   84 1    
    32   15   85 1    
    33   16   17 1    
    34   17   18 1    
    35   17   86 1    
    36   17   87 1    
    37   18   19 1    
    38   18   37 1    
    39   18   88 1    
    40   19   20 am   BACKBONE|DICT|INTERRES
    41   19   89 1    
    42   20   21 2    
    43   20   22 1    
    44   22   23 1    
    45   22   24 1    
    46   22   90 1    
    47   23   91 1    
    48   23   92 1    
    49   23   93 1    
    50   24   25 am   BACKBONE|DICT|INTERRES
    51   24   94 1    
    52   25   26 2    
    53   25   27 1    
    54   27   28 1    
    55   27   29 1    
    56   27   95 1    
    57   28   96 1    
    58   28   97 1    
    59   28   98 1    
    60   29   30 am   BACKBONE|DICT|INTERRES
    61   29   99 1    
    62   30   31 2    
    63   30   32 1    
    64   32   33 1    
    65   32   34 1    
    66   32  100 1    
    67   33  101 1    
    68   33  102 1    
    69   33  103 1    
    70   34   35 am   BACKBONE|DICT|INTERRES
    71   34  104 1    
    72   35   36 2    
    73   37   38 2    
    74   37   39 am   BACKBONE|DICT|INTERRES
    75   39   40 1    
    76   39  105 1    
    77   40   41 1    
    78   40   42 1    
    79   40  106 1    
    80   41  107 1    
    81   41  108 1    
    82   41  109 1    
    83   42   43 2    
    84   42   44 am   BACKBONE|DICT|INTERRES
    85   44   45 1    
    86   44  110 1    
    87   45   46 1    
    88   45   47 1    
    89   45  111 1    
    90   46  112 1    
    91   46  113 1    
    92   46  114 1    
    93   47   48 2    
    94   47   49 am   BACKBONE|DICT|INTERRES
    95   49   50 1    
    96   49  115 1    
    97   50   51 1    
    98   50   52 1    
    99   50  116 1    
   100   51  117 1    
   101   51  118 1    
   102   51  119 1    
   103   52   53 2    
   104   52   54 am   BACKBONE|DICT|INTERRES
   105   54   55 1    
   106   54  120 1    
   107   55   56 1    
   108   55   57 1    
   109   55  121 1    
   110   56  122 1    
   111   56  123 1    
   112   56  124 1    
   113   57   58 2    
   114   57   59 am   BACKBONE|DICT|INTERRES
   115   59   60 1    
   116   59  125 1    
   117   60   61 1    
   118   60   62 1    
   119   60  126 1    
   120   61  127 1    
   121   61  128 1    
   122   61  129 1    
   123   62   63 2    
   124   62   64 am   BACKBONE|DICT|INTERRES
   125   64   65 1    
   126   64  130 1    
   127   65   66 1    
   128   65   69 1    
   129   65  131 1    
   130   66   67 am   BACKBONE|DICT|INTERRES
   131   66   68 2    
   132   67  132 1    
   133   67  133 1    
   134   69   70 1    
   135   69  134 1    
   136   69  135 1    
   137   70   71 1    
   138   71  136 1    
   139   71  137 1    
@<TRIPOS>SUBSTRUCTURE
     1 UNK         1 GROUP             0       ****    0 ROOT    
