@<TRIPOS>MOLECULE
3R136
137   139    1
SMALL
USER_CHARGES


@<TRIPOS>ATOM
      1 CA         30.6062   18.4856   -0.6523 C.3       0 UNK        -0.1979 
      2 C          30.9863   19.9523   -0.5120 C.2       0 UNK         0.4864 
      3 O          31.9789   20.3857   -1.0996 O.2       0 UNK        -0.5359 
      4 N          30.2103   20.7148    0.2684 N.am      1 UNK        -0.4318 
      5 CA         30.3921   22.1543    0.4904 C.3       1 UNK         0.0824 
      6 C6         29.5791   22.6727    1.7083 C.3       12 UNK        -0.0944 
      7 S7         29.6997   21.6049    3.1872 S.3       12 UNK        -0.2672 
      8 C8         31.1501   22.2830    4.0529 C.3       12 UNK         0.0333 
      9 C9         30.8627   23.6161    4.7303 C.ar      12 UNK        -0.0807 
     10 C10        31.6053   24.7486    4.3877 C.ar      12 UNK        -0.0894 
     11 C11        31.3617   25.9724    5.0166 C.ar      12 UNK        -0.0804 
     12 C12        30.3846   26.0565    6.0105 C.ar      12 UNK        -0.0824 
     13 C13        29.6221   24.9371    6.3490 C.ar      12 UNK        -0.0762 
     14 C14        29.8718   23.7164    5.7133 C.ar      12 UNK        -0.0782 
     15 C15        28.5188   25.0504    7.3882 C.3       12 UNK         0.0230 
     16 S16        26.9503   25.5793    6.6285 S.3       12 UNK        -0.2608 
     17 C17        27.1409   27.3963    6.5307 C.3       12 UNK        -0.0989 
     18 CA         27.4372   27.9344    5.1049 C.3       5 UNK         0.0716 
     19 N          26.5186   27.3731    4.1025 N.am      5 UNK        -0.4135 
     20 C          26.5082   27.6312    2.7868 C.2       4 UNK         0.5031 
     21 O          27.2386   28.4570    2.2343 O.2       4 UNK        -0.5229 
     22 CA         25.4202   26.9025    1.9817 C.3       4 UNK         0.0329 
     23 CB         24.0829   27.6538    2.1011 C.3       4 UNK        -0.2001 
     24 N          25.7516   26.7595    0.5631 N.am      4 UNK        -0.4303 
     25 C          26.7293   25.9881    0.0714 C.2       3 UNK         0.5044 
     26 O          27.4799   25.3049    0.7725 O.2       3 UNK        -0.5152 
     27 CA         26.8180   25.9021   -1.4662 C.3       3 UNK         0.0319 
     28 CB         26.5205   27.2394   -2.1849 C.3       3 UNK        -0.2001 
     29 N          28.0836   25.3048   -1.9064 N.am      3 UNK        -0.4354 
     30 C          29.3017   25.8622   -1.9063 C.2       2 UNK         0.4964 
     31 O          29.5277   27.0456   -1.6534 O.2       2 UNK        -0.5047 
     32 CA         30.4654   24.9044   -2.2211 C.3       2 UNK         0.0288 
     33 CB         31.7620   25.6339   -2.6201 C.3       2 UNK        -0.2113 
     34 N          30.7286   24.0276   -1.0768 N.am      2 UNK        -0.4145 
     35 C          30.0121   22.9344   -0.7862 C.2       1 UNK         0.5006 
     36 O          29.0629   22.5467   -1.4767 O.2       1 UNK        -0.5103 
     37 C          27.4640   29.4806    5.1306 C.2       5 UNK         0.5055 
     38 O          28.4870   30.0707    5.4830 O.2       5 UNK        -0.5220 
     39 N          26.3457   30.1051    4.7301 N.am      6 UNK        -0.4450 
     40 CA         26.1552   31.5498    4.5820 C.3       6 UNK         0.0367 
     41 CB         24.6851   31.8192    4.2199 C.3       6 UNK        -0.1929 
     42 C          27.0923   32.2268    3.5614 C.2       6 UNK         0.5070 
     43 O          27.2050   33.4526    3.5899 O.2       6 UNK        -0.5237 
     44 N          27.7607   31.4459    2.6965 N.am      7 UNK        -0.4739 
     45 CA         28.8013   31.9261    1.7807 C.3       7 UNK         0.0276 
     46 CB         29.1735   30.8078    0.7959 C.3       7 UNK        -0.1927 
     47 C          30.0614   32.4574    2.4946 C.2       7 UNK         0.5013 
     48 O          30.7778   33.2527    1.8880 O.2       7 UNK        -0.5193 
     49 N          30.2826   32.0358    3.7532 N.am      8 UNK        -0.4253 
     50 CA         31.3283   32.4718    4.6878 C.3       8 UNK         0.0242 
     51 CB         31.1497   33.9599    5.0535 C.3       8 UNK        -0.2000 
     52 C          32.7473   32.1690    4.1765 C.2       8 UNK         0.4948 
     53 O          33.3446   32.9856    3.4732 O.2       8 UNK        -0.5275 
     54 N          33.2533   30.9761    4.5177 N.am      9 UNK        -0.4246 
     55 CA         34.5650   30.4005    4.1707 C.3       9 UNK         0.0261 
     56 CB         35.7317   31.2822    4.6577 C.3       9 UNK        -0.1959 
     57 C          34.7289   30.0275    2.6858 C.2       9 UNK         0.5033 
     58 O          35.3335   28.9940    2.3973 O.2       9 UNK        -0.5390 
     59 N          34.1379   30.8125    1.7732 N.am      10 UNK        -0.4215 
     60 CA         34.0340   30.5332    0.3332 C.3       10 UNK         0.0240 
     61 CB         33.3566   31.7237   -0.3634 C.3       10 UNK        -0.1982 
     62 C          33.2898   29.2216    0.0081 C.2       10 UNK         0.4970 
     63 O          33.5168   28.6410   -1.0530 O.2       10 UNK        -0.4916 
     64 N          32.4524   28.7713    0.9488 N.am      11 UNK        -0.4279 
     65 CA         31.8434   27.4390    1.0249 C.3       11 UNK         0.1003 
     66 C          32.8422   26.2504    1.1464 C.2       11 UNK         0.5709 
     67 N          34.1046   26.4597    1.5018 N.am      11 UNK        -0.7358 
     68 O          32.4593   25.1087    0.9000 O.2       11 UNK        -0.4999 
     69 C69        30.7394   27.3757    2.1195 C.3       12 UNK        -0.0954 
     70 S70        31.1017   28.3491    3.6307 S.3       12 UNK        -0.2268 
     71 C71        32.1338   27.2139    4.6089 C.3       12 UNK         0.0203 
     72 H72        29.7201   18.2367   -0.0684 H         1 UNK         0.0888 
     73 H73        30.4016   18.2496   -1.6963 H         1 UNK         0.0888 
     74 H74        31.4247   17.8515   -0.3127 H         1 UNK         0.0888 
     75 H75        29.4047   20.3090    0.7220 H         1 UNK         0.3017 
     76 H76        31.4518   22.3256    0.6937 H         1 UNK         0.0873 
     77 H77        28.5184   22.7403    1.4569 H         1 UNK         0.0745 
     78 H78        29.8865   23.6880    1.9677 H         1 UNK         0.0745 
     79 H79        31.4682   21.5680    4.8127 H         1 UNK         0.0705 
     80 H80        31.9780   22.3683    3.3471 H         1 UNK         0.0705 
     81 H81        32.3678   24.6794    3.6245 H         1 UNK         0.1334 
     82 H82        30.1966   27.0051    6.4943 H         1 UNK         0.1417 
     83 H83        29.2870   22.8442    5.9731 H         1 UNK         0.1562 
     84 H84        28.8070   25.7380    8.1847 H         1 UNK         0.0748 
     85 H85        28.3636   24.0831    7.8686 H         1 UNK         0.0748 
     86 H86        27.9191   27.7178    7.2255 H         1 UNK         0.0940 
     87 H87        26.2137   27.8302    6.9111 H         1 UNK         0.0940 
     88 H88        28.4353   27.6087    4.8117 H         1 UNK         0.0703 
     89 H89        25.8782   26.6788    4.4605 H         1 UNK         0.3081 
     90 H90        25.2985   25.8995    2.3967 H         1 UNK         0.0719 
     91 H91        23.7669   27.7377    3.1418 H         1 UNK         0.0809 
     92 H92        24.1519   28.6658    1.6991 H         1 UNK         0.0809 
     93 H93        23.2864   27.1346    1.5676 H         1 UNK         0.0809 
     94 H94        25.2007   27.3036   -0.0836 H         1 UNK         0.2990 
     95 H95        26.0469   25.1926   -1.7696 H         1 UNK         0.0690 
     96 H96        26.7230   27.1681   -3.2537 H         1 UNK         0.0788 
     97 H97        27.1199   28.0588   -1.7860 H         1 UNK         0.0788 
     98 H98        25.4728   27.5221   -2.0809 H         1 UNK         0.0788 
     99 H99        28.0566   24.2987   -2.0363 H         1 UNK         0.2993 
    100 H100       30.1662   24.2950   -3.0772 H         1 UNK         0.0949 
    101 H101       32.5369   24.9264   -2.9154 H         1 UNK         0.0767 
    102 H102       31.5891   26.2974   -3.4684 H         1 UNK         0.0767 
    103 H103       32.1613   26.2425   -1.8106 H         1 UNK         0.0767 
    104 H104       31.4459   24.3342   -0.4222 H         1 UNK         0.3013 
    105 H105       25.5663   29.5261    4.4557 H         1 UNK         0.3121 
    106 H106       26.3602   32.0065    5.5524 H         1 UNK         0.0774 
    107 H107       24.4156   31.3649    3.2655 H         1 UNK         0.0815 
    108 H108       24.4927   32.8898    4.1361 H         1 UNK         0.0815 
    109 H109       24.0089   31.4313    4.9819 H         1 UNK         0.0815 
    110 H110       27.5903   30.4443    2.7027 H         1 UNK         0.2987 
    111 H111       28.3797   32.7558    1.2091 H         1 UNK         0.0949 
    112 H112       29.6418   29.9711    1.3097 H         1 UNK         0.0806 
    113 H113       28.2984   30.4289    0.2675 H         1 UNK         0.0806 
    114 H114       29.8792   31.1643    0.0447 H         1 UNK         0.0806 
    115 H115       29.6289   31.3585    4.1325 H         1 UNK         0.3010 
    116 H116       31.1756   31.8969    5.6029 H         1 UNK         0.0829 
    117 H117       31.2769   34.6126    4.1891 H         1 UNK         0.0813 
    118 H118       30.1602   34.1483    5.4705 H         1 UNK         0.0813 
    119 H119       31.8826   34.2670    5.8005 H         1 UNK         0.0813 
    120 H120       32.6573   30.3638    5.0583 H         1 UNK         0.3038 
    121 H121       34.6198   29.4622    4.7253 H         1 UNK         0.0769 
    122 H122       36.6870   30.7788    4.5032 H         1 UNK         0.0811 
    123 H123       35.7802   32.2322    4.1250 H         1 UNK         0.0811 
    124 H124       35.6482   31.4981    5.7228 H         1 UNK         0.0811 
    125 H125       33.7105   31.6705    2.1155 H         1 UNK         0.3204 
    126 H126       35.0491   30.4352   -0.0566 H         1 UNK         0.0748 
    127 H127       33.2872   31.5604   -1.4398 H         1 UNK         0.0771 
    128 H128       32.3444   31.8852    0.0089 H         1 UNK         0.0771 
    129 H129       33.9191   32.6452   -0.2114 H         1 UNK         0.0771 
    130 H130       32.3365   29.3285    1.7814 H         1 UNK         0.2980 
    131 H131       31.3476   27.2881    0.0694 H         1 UNK         0.0545 
    132 H132       34.4494   27.3891    1.7199 H         1 UNK         0.3459 
    133 H133       34.7301   25.6728    1.5585 H         1 UNK         0.3459 
    134 H134       29.8152   27.7743    1.7025 H         1 UNK         0.0616 
    135 H135       30.4821   26.3495    2.3852 H         1 UNK         0.0616 
    136 H136       32.4765   27.7346    5.5040 H         1 UNK         0.0634 
    137 H137       33.0315   26.9541    4.0479 H         1 UNK         0.0634 
@<TRIPOS>BOND
     1    1    2 1    
     2    1   72 1    
     3    1   73 1    
     4    1   74 1    
     5    2    3 2    
     6    2    4 am   BACKBONE|DICT|INTERRES
     7    4    5 1    
     8    4   75 1    
     9    5    6 1    
    10    5   35 1    
    11    5   76 1    
    12    6    7 1    
    13    6   77 1    
    14    6   78 1    
    15    7    8 1    
    16    8    9 1    
    17    8   79 1    
    18    8   80 1    
    19    9   10 ar   
    20    9   14 ar   
    21   10   11 ar   
    22   10   81 1    
    23   11   12 ar   
    24   11   71 1    
    25   12   13 ar   
    26   12   82 1    
    27   13   14 ar   
    28   13   15 1    
    29   14   83 1    
    30   15   16 1    
    31   15   84 1    
    32   15   85 1    
    33   16   17 1    
    34   17   18 1    
    35   17   86 1    
    36   17   87 1    
    37   18   19 1    
    38   18   37 1    
    39   18   88 1    
    40   19   20 am   BACKBONE|DICT|INTERRES
    41   19   89 1    
    42   20   21 2    
    43   20   22 1    
    44   22   23 1    
    45   22   24 1    
    46   22   90 1    
    47   23   91 1    
    48   23   92 1    
    49   23   93 1    
    50   24   25 am   BACKBONE|DICT|INTERRES
    51   24   94 1    
    52   25   26 2    
    53   25   27 1    
    54   27   28 1    
    55   27   29 1    
    56   27   95 1    
    57   28   96 1    
    58   28   97 1    
    59   28   98 1    
    60   29   30 am   BACKBONE|DICT|INTERRES
    61   29   99 1    
    62   30   31 2    
    63   30   32 1    
    64   32   33 1    
    65   32   34 1    
    66   32  100 1    
    67   33  101 1    
    68   33  102 1    
    69   33  103 1    
    70   34   35 am   BACKBONE|DICT|INTERRES
    71   34  104 1    
    72   35   36 2    
    73   37   38 2    
    74   37   39 am   BACKBONE|DICT|INTERRES
    75   39   40 1    
    76   39  105 1    
    77   40   41 1    
    78   40   42 1    
    79   40  106 1    
    80   41  107 1    
    81   41  108 1    
    82   41  109 1    
    83   42   43 2    
    84   42   44 am   BACKBONE|DICT|INTERRES
    85   44   45 1    
    86   44  110 1    
    87   45   46 1    
    88   45   47 1    
    89   45  111 1    
    90   46  112 1    
    91   46  113 1    
    92   46  114 1    
    93   47   48 2    
    94   47   49 am   BACKBONE|DICT|INTERRES
    95   49   50 1    
    96   49  115 1    
    97   50   51 1    
    98   50   52 1    
    99   50  116 1    
   100   51  117 1    
   101   51  118 1    
   102   51  119 1    
   103   52   53 2    
   104   52   54 am   BACKBONE|DICT|INTERRES
   105   54   55 1    
   106   54  120 1    
   107   55   56 1    
   108   55   57 1    
   109   55  121 1    
   110   56  122 1    
   111   56  123 1    
   112   56  124 1    
   113   57   58 2    
   114   57   59 am   BACKBONE|DICT|INTERRES
   115   59   60 1    
   116   59  125 1    
   117   60   61 1    
   118   60   62 1    
   119   60  126 1    
   120   61  127 1    
   121   61  128 1    
   122   61  129 1    
   123   62   63 2    
   124   62   64 am   BACKBONE|DICT|INTERRES
   125   64   65 1    
   126   64  130 1    
   127   65   66 1    
   128   65   69 1    
   129   65  131 1    
   130   66   67 am   BACKBONE|DICT|INTERRES
   131   66   68 2    
   132   67  132 1    
   133   67  133 1    
   134   69   70 1    
   135   69  134 1    
   136   69  135 1    
   137   70   71 1    
   138   71  136 1    
   139   71  137 1    
@<TRIPOS>SUBSTRUCTURE
     1 UNK         1 GROUP             0       ****    0 ROOT    
