@<TRIPOS>MOLECULE
3R136
137   139    1
SMALL
USER_CHARGES


@<TRIPOS>ATOM
      1 CA         26.4602   20.9080   -0.7985 C.3       0 UNK        -0.1979 
      2 C          27.4134   21.9430   -0.2202 C.2       0 UNK         0.4864 
      3 O          27.3237   23.1169   -0.5737 O.2       0 UNK        -0.5359 
      4 N          28.3111   21.5152    0.6782 N.am      1 UNK        -0.4318 
      5 CA         29.3649   22.3249    1.3114 C.3       1 UNK         0.0824 
      6 C6         30.3867   21.4231    2.0530 C.3       12 UNK        -0.0944 
      7 S7         31.2702   20.3080    0.9078 S.3       12 UNK        -0.2672 
      8 C8         32.9795   20.9486    0.9795 C.3       12 UNK         0.0333 
      9 C9         33.0713   22.4448    0.7005 C.ar      12 UNK        -0.0807 
     10 C10        33.6896   23.2940    1.6232 C.ar      12 UNK        -0.0894 
     11 C11        33.7609   24.6705    1.3898 C.ar      12 UNK        -0.0804 
     12 C12        33.1977   25.1978    0.2216 C.ar      12 UNK        -0.0824 
     13 C13        32.5639   24.3614   -0.7049 C.ar      12 UNK        -0.0762 
     14 C14        32.5323   22.9832   -0.4711 C.ar      12 UNK        -0.0782 
     15 C15        31.9216   24.9384   -1.9622 C.3       12 UNK         0.0230 
     16 S16        30.1629   24.4612   -2.1111 S.3       12 UNK        -0.2608 
     17 C17        29.3027   26.0602   -2.3155 C.3       12 UNK        -0.0989 
     18 CA         28.4981   26.4943   -1.0539 C.3       5 UNK         0.0716 
     19 N          29.2973   26.5653    0.1739 N.am      5 UNK        -0.4135 
     20 C          30.3524   27.3646    0.3748 C.2       4 UNK         0.5031 
     21 O          30.8575   28.0667   -0.5013 O.2       4 UNK        -0.5229 
     22 CA         30.9334   27.3796    1.7971 C.3       4 UNK         0.0329 
     23 CB         31.9680   28.5047    2.0006 C.3       4 UNK        -0.2001 
     24 N          29.8996   27.3823    2.8388 N.am      4 UNK        -0.4303 
     25 C          28.9742   28.3255    3.0717 C.2       3 UNK         0.5044 
     26 O          28.9305   29.4059    2.4845 O.2       3 UNK        -0.5152 
     27 CA         27.8844   27.9915    4.1149 C.3       3 UNK         0.0319 
     28 CB         26.5956   28.8275    3.9323 C.3       3 UNK        -0.2001 
     29 N          27.5453   26.5649    4.1833 N.am      3 UNK        -0.4354 
     30 C          27.1053   25.7979    3.1755 C.2       2 UNK         0.4964 
     31 O          26.9203   26.2008    2.0235 O.2       2 UNK        -0.5047 
     32 CA         26.8626   24.3178    3.5169 C.3       2 UNK         0.0288 
     33 CB         25.3574   24.0061    3.5090 C.3       2 UNK        -0.2113 
     34 N          27.5480   23.3959    2.6072 N.am      2 UNK        -0.4145 
     35 C          28.8443   23.4294    2.2591 C.2       1 UNK         0.5006 
     36 O          29.6361   24.2808    2.6685 O.2       1 UNK        -0.5103 
     37 C          27.7213   27.8162   -1.2594 C.2       5 UNK         0.5055 
     38 O          27.6594   28.3267   -2.3800 O.2       5 UNK        -0.5220 
     39 N          27.1611   28.3477   -0.1588 N.am      6 UNK        -0.4450 
     40 CA         26.4809   29.6439   -0.0378 C.3       6 UNK         0.0367 
     41 CB         25.1326   29.6224   -0.7884 C.3       6 UNK        -0.1929 
     42 C          27.3804   30.8328   -0.4396 C.2       6 UNK         0.5070 
     43 O          27.0060   31.6293   -1.3027 O.2       6 UNK        -0.5237 
     44 N          28.5515   30.9319    0.1997 N.am      7 UNK        -0.4739 
     45 CA         29.5490   31.9785   -0.0099 C.3       7 UNK         0.0276 
     46 CB         30.7755   31.3863   -0.7259 C.3       7 UNK        -0.1927 
     47 C          29.9063   32.6012    1.3463 C.2       7 UNK         0.5013 
     48 O          30.9182   32.2424    1.9521 O.2       7 UNK        -0.5193 
     49 N          29.0413   33.5174    1.8052 N.am      8 UNK        -0.4253 
     50 CA         29.2056   34.3865    2.9817 C.3       8 UNK         0.0242 
     51 CB         30.3552   35.3905    2.7454 C.3       8 UNK        -0.2000 
     52 C          29.3446   33.6540    4.3336 C.2       8 UNK         0.4948 
     53 O          29.8636   34.2419    5.2843 O.2       8 UNK        -0.5275 
     54 N          28.8652   32.4028    4.4059 N.am      9 UNK        -0.4246 
     55 CA         28.8830   31.5197    5.5796 C.3       9 UNK         0.0261 
     56 CB         27.9614   32.0594    6.6947 C.3       9 UNK        -0.1959 
     57 C          30.3005   31.1716    6.0765 C.2       9 UNK         0.5033 
     58 O          30.5075   31.0204    7.2829 O.2       9 UNK        -0.5390 
     59 N          31.2493   31.0411    5.1400 N.am      10 UNK        -0.4215 
     60 CA         32.6218   30.6069    5.4066 C.3       10 UNK         0.0240 
     61 CB         33.5183   31.0797    4.2467 C.3       10 UNK        -0.1982 
     62 C          32.7218   29.0829    5.6340 C.2       10 UNK         0.4970 
     63 O          31.7378   28.3617    5.4540 O.2       10 UNK        -0.4916 
     64 N          33.9291   28.6403    6.0106 N.am      11 UNK        -0.4279 
     65 CA         34.3385   27.2529    6.2919 C.3       11 UNK         0.1003 
     66 C          33.4315   26.4776    7.2983 C.2       11 UNK         0.5709 
     67 N          33.3557   25.1558    7.2173 N.am      11 UNK        -0.7358 
     68 O          32.8567   27.0645    8.2138 O.2       11 UNK        -0.4999 
     69 C69        34.8114   26.4780    5.0202 C.3       12 UNK        -0.0954 
     70 S70        33.5178   25.7913    3.9285 S.3       12 UNK        -0.2268 
     71 C71        34.4730   25.5720    2.3918 C.3       12 UNK         0.0203 
     72 H72        25.4291   21.1820   -0.5770 H         1 UNK         0.0888 
     73 H73        26.5747   20.8588   -1.8810 H         1 UNK         0.0888 
     74 H74        26.6421   19.9128   -0.3931 H         1 UNK         0.0888 
     75 H75        28.3332   20.5333    0.9152 H         1 UNK         0.3017 
     76 H76        29.8888   22.8513    0.5118 H         1 UNK         0.0873 
     77 H77        31.1182   22.0227    2.5985 H         1 UNK         0.0745 
     78 H78        29.8836   20.8147    2.8068 H         1 UNK         0.0745 
     79 H79        33.3959   20.7119    1.9599 H         1 UNK         0.0705 
     80 H80        33.5881   20.4137    0.2493 H         1 UNK         0.0705 
     81 H81        34.1164   22.8874    2.5301 H         1 UNK         0.1334 
     82 H82        33.2484   26.2619    0.0359 H         1 UNK         0.1417 
     83 H83        32.0517   22.3298   -1.1870 H         1 UNK         0.1562 
     84 H84        32.4603   24.5703   -2.8362 H         1 UNK         0.0748 
     85 H85        32.0241   26.0238   -1.9772 H         1 UNK         0.0748 
     86 H86        28.6210   25.9449   -3.1600 H         1 UNK         0.0940 
     87 H87        30.0089   26.8336   -2.6201 H         1 UNK         0.0940 
     88 H88        27.7394   25.7330   -0.8696 H         1 UNK         0.0703 
     89 H89        28.9367   26.0381    0.9591 H         1 UNK         0.3081 
     90 H90        31.4505   26.4287    1.9121 H         1 UNK         0.0719 
     91 H91        32.7298   28.4933    1.2208 H         1 UNK         0.0809 
     92 H92        31.5066   29.4915    1.9916 H         1 UNK         0.0809 
     93 H93        32.4923   28.3816    2.9427 H         1 UNK         0.0809 
     94 H94        29.8319   26.5185    3.3627 H         1 UNK         0.2990 
     95 H95        28.3175   28.2468    5.0828 H         1 UNK         0.0690 
     96 H96        25.9180   28.6880    4.7745 H         1 UNK         0.0788 
     97 H97        26.0558   28.5476    3.0283 H         1 UNK         0.0788 
     98 H98        26.8003   29.8953    3.8618 H         1 UNK         0.0788 
     99 H99        27.6852   26.1316    5.0860 H         1 UNK         0.2993 
    100 H100       27.2489   24.1191    4.5186 H         1 UNK         0.0949 
    101 H101       24.8178   24.6648    4.1911 H         1 UNK         0.0767 
    102 H102       24.9253   24.1407    2.5162 H         1 UNK         0.0767 
    103 H103       25.1602   22.9818    3.8261 H         1 UNK         0.0767 
    104 H104       26.9779   22.6778    2.1867 H         1 UNK         0.3013 
    105 H105       27.2409   27.8142    0.7009 H         1 UNK         0.3121 
    106 H106       26.2612   29.7797    1.0212 H         1 UNK         0.0774 
    107 H107       25.2681   29.5144   -1.8649 H         1 UNK         0.0815 
    108 H108       24.5797   30.5478   -0.6225 H         1 UNK         0.0815 
    109 H109       24.5015   28.8025   -0.4456 H         1 UNK         0.0815 
    110 H110       28.7596   30.2727    0.9520 H         1 UNK         0.2987 
    111 H111       29.1479   32.7732   -0.6428 H         1 UNK         0.0949 
    112 H112       31.2667   30.6228   -0.1238 H         1 UNK         0.0806 
    113 H113       30.4982   30.9307   -1.6766 H         1 UNK         0.0806 
    114 H114       31.5151   32.1599   -0.9348 H         1 UNK         0.0806 
    115 H115       28.2118   33.6922    1.2537 H         1 UNK         0.3010 
    116 H116       28.2818   34.9621    3.0578 H         1 UNK         0.0829 
    117 H117       30.3936   36.1408    3.5362 H         1 UNK         0.0813 
    118 H118       31.3256   34.8930    2.7227 H         1 UNK         0.0813 
    119 H119       30.2297   35.9249    1.8038 H         1 UNK         0.0813 
    120 H120       28.4952   31.9977    3.5567 H         1 UNK         0.3038 
    121 H121       28.4617   30.5744    5.2500 H         1 UNK         0.0769 
    122 H122       28.3495   32.9802    7.1311 H         1 UNK         0.0811 
    123 H123       27.8607   31.3351    7.5039 H         1 UNK         0.0811 
    124 H124       26.9590   32.2619    6.3179 H         1 UNK         0.0811 
    125 H125       30.9961   31.1793    4.1694 H         1 UNK         0.3204 
    126 H126       32.9652   31.0965    6.3206 H         1 UNK         0.0748 
    127 H127       34.5616   30.8038    4.4024 H         1 UNK         0.0771 
    128 H128       33.2083   30.6585    3.2915 H         1 UNK         0.0771 
    129 H129       33.4876   32.1651    4.1477 H         1 UNK         0.0771 
    130 H130       34.6538   29.3272    6.1564 H         1 UNK         0.2980 
    131 H131       35.2478   27.3958    6.8767 H         1 UNK         0.0545 
    132 H132       32.7952   24.6521    7.8862 H         1 UNK         0.3459 
    133 H133       33.8072   24.6645    6.4619 H         1 UNK         0.3459 
    134 H134       35.4492   27.1318    4.4232 H         1 UNK         0.0616 
    135 H135       35.4548   25.6491    5.3194 H         1 UNK         0.0616 
    136 H136       34.6729   26.5524    1.9569 H         1 UNK         0.0634 
    137 H137       35.4440   25.1357    2.6307 H         1 UNK         0.0634 
@<TRIPOS>BOND
     1    1    2 1    
     2    1   72 1    
     3    1   73 1    
     4    1   74 1    
     5    2    3 2    
     6    2    4 am   BACKBONE|DICT|INTERRES
     7    4    5 1    
     8    4   75 1    
     9    5    6 1    
    10    5   35 1    
    11    5   76 1    
    12    6    7 1    
    13    6   77 1    
    14    6   78 1    
    15    7    8 1    
    16    8    9 1    
    17    8   79 1    
    18    8   80 1    
    19    9   10 ar   
    20    9   14 ar   
    21   10   11 ar   
    22   10   81 1    
    23   11   12 ar   
    24   11   71 1    
    25   12   13 ar   
    26   12   82 1    
    27   13   14 ar   
    28   13   15 1    
    29   14   83 1    
    30   15   16 1    
    31   15   84 1    
    32   15   85 1    
    33   16   17 1    
    34   17   18 1    
    35   17   86 1    
    36   17   87 1    
    37   18   19 1    
    38   18   37 1    
    39   18   88 1    
    40   19   20 am   BACKBONE|DICT|INTERRES
    41   19   89 1    
    42   20   21 2    
    43   20   22 1    
    44   22   23 1    
    45   22   24 1    
    46   22   90 1    
    47   23   91 1    
    48   23   92 1    
    49   23   93 1    
    50   24   25 am   BACKBONE|DICT|INTERRES
    51   24   94 1    
    52   25   26 2    
    53   25   27 1    
    54   27   28 1    
    55   27   29 1    
    56   27   95 1    
    57   28   96 1    
    58   28   97 1    
    59   28   98 1    
    60   29   30 am   BACKBONE|DICT|INTERRES
    61   29   99 1    
    62   30   31 2    
    63   30   32 1    
    64   32   33 1    
    65   32   34 1    
    66   32  100 1    
    67   33  101 1    
    68   33  102 1    
    69   33  103 1    
    70   34   35 am   BACKBONE|DICT|INTERRES
    71   34  104 1    
    72   35   36 2    
    73   37   38 2    
    74   37   39 am   BACKBONE|DICT|INTERRES
    75   39   40 1    
    76   39  105 1    
    77   40   41 1    
    78   40   42 1    
    79   40  106 1    
    80   41  107 1    
    81   41  108 1    
    82   41  109 1    
    83   42   43 2    
    84   42   44 am   BACKBONE|DICT|INTERRES
    85   44   45 1    
    86   44  110 1    
    87   45   46 1    
    88   45   47 1    
    89   45  111 1    
    90   46  112 1    
    91   46  113 1    
    92   46  114 1    
    93   47   48 2    
    94   47   49 am   BACKBONE|DICT|INTERRES
    95   49   50 1    
    96   49  115 1    
    97   50   51 1    
    98   50   52 1    
    99   50  116 1    
   100   51  117 1    
   101   51  118 1    
   102   51  119 1    
   103   52   53 2    
   104   52   54 am   BACKBONE|DICT|INTERRES
   105   54   55 1    
   106   54  120 1    
   107   55   56 1    
   108   55   57 1    
   109   55  121 1    
   110   56  122 1    
   111   56  123 1    
   112   56  124 1    
   113   57   58 2    
   114   57   59 am   BACKBONE|DICT|INTERRES
   115   59   60 1    
   116   59  125 1    
   117   60   61 1    
   118   60   62 1    
   119   60  126 1    
   120   61  127 1    
   121   61  128 1    
   122   61  129 1    
   123   62   63 2    
   124   62   64 am   BACKBONE|DICT|INTERRES
   125   64   65 1    
   126   64  130 1    
   127   65   66 1    
   128   65   69 1    
   129   65  131 1    
   130   66   67 am   BACKBONE|DICT|INTERRES
   131   66   68 2    
   132   67  132 1    
   133   67  133 1    
   134   69   70 1    
   135   69  134 1    
   136   69  135 1    
   137   70   71 1    
   138   71  136 1    
   139   71  137 1    
@<TRIPOS>SUBSTRUCTURE
     1 UNK         1 GROUP             0       ****    0 ROOT    
