@<TRIPOS>MOLECULE
3R136
137   139    1
SMALL
USER_CHARGES


@<TRIPOS>ATOM
      1 CA         28.5252   18.0735   -1.4762 C.3       0 UNK        -0.1979 
      2 C          28.6006   19.5775   -1.6934 C.2       0 UNK         0.4864 
      3 O          27.9510   20.0960   -2.6023 O.2       0 UNK        -0.5359 
      4 N          29.3929   20.2763   -0.8692 N.am      1 UNK        -0.4318 
      5 CA         29.5616   21.7347   -0.8799 C.3       1 UNK         0.0824 
      6 C6         30.7748   22.1866   -0.0277 C.3       12 UNK        -0.0944 
      7 S7         30.8029   21.4792    1.6567 S.3       12 UNK        -0.2672 
      8 C8         32.2731   22.2921    2.3490 C.3       12 UNK         0.0333 
      9 C9         31.9760   23.7196    2.7814 C.ar      12 UNK        -0.0807 
     10 C10        32.3958   24.8018    2.0025 C.ar      12 UNK        -0.0894 
     11 C11        32.1640   26.1111    2.4322 C.ar      12 UNK        -0.0804 
     12 C12        31.5118   26.3322    3.6483 C.ar      12 UNK        -0.0824 
     13 C13        31.0544   25.2599    4.4223 C.ar      12 UNK        -0.0762 
     14 C14        31.2994   23.9556    3.9819 C.ar      12 UNK        -0.0782 
     15 C15        30.3252   25.4728    5.7494 C.3       12 UNK         0.0230 
     16 S16        29.2052   26.9163    5.8021 S.3       12 UNK        -0.2608 
     17 C17        28.0974   26.6275    4.3765 C.3       12 UNK        -0.0989 
     18 CA         28.2972   27.7088    3.2801 C.3       5 UNK         0.0716 
     19 N          28.2498   27.1452    1.9287 N.am      5 UNK        -0.4135 
     20 C          28.7617   27.7389    0.8384 C.2       4 UNK         0.5031 
     21 O          29.3487   28.8209    0.8656 O.2       4 UNK        -0.5229 
     22 CA         28.5199   27.0526   -0.5202 C.3       4 UNK         0.0329 
     23 CB         29.7151   26.1559   -0.8739 C.3       4 UNK        -0.2001 
     24 N          27.2814   26.2654   -0.5720 N.am      4 UNK        -0.4303 
     25 C          26.0567   26.7491   -0.3076 C.2       3 UNK         0.5044 
     26 O          25.8360   27.9392   -0.0872 O.2       3 UNK        -0.5152 
     27 CA         24.8859   25.7554   -0.2021 C.3       3 UNK         0.0319 
     28 CB         24.0227   25.8110   -1.4724 C.3       3 UNK        -0.2001 
     29 N          25.2691   24.3646    0.0549 N.am      3 UNK        -0.4354 
     30 C          26.0095   23.9043    1.0750 C.2       2 UNK         0.4964 
     31 O          26.4950   24.6182    1.9553 O.2       2 UNK        -0.5047 
     32 CA         26.2839   22.3872    1.0864 C.3       2 UNK         0.0288 
     33 CB         25.2151   21.5643    0.3326 C.3       2 UNK        -0.2113 
     34 N          27.6149   22.0186    0.5862 N.am      2 UNK        -0.4145 
     35 C          28.2636   22.4776   -0.4983 C.2       1 UNK         0.5006 
     36 O          27.8731   23.4060   -1.2091 O.2       1 UNK        -0.5103 
     37 C          27.3870   28.9452    3.4785 C.2       5 UNK         0.5055 
     38 O          27.4741   29.5842    4.5275 O.2       5 UNK        -0.5220 
     39 N          26.5832   29.3317    2.4718 N.am      6 UNK        -0.4450 
     40 CA         25.9106   30.6372    2.4221 C.3       6 UNK         0.0367 
     41 CB         24.9229   30.6728    1.2462 C.3       6 UNK        -0.1929 
     42 C          26.9001   31.8176    2.3289 C.2       6 UNK         0.5070 
     43 O          26.5538   32.9256    2.7372 O.2       6 UNK        -0.5237 
     44 N          28.1231   31.5548    1.8430 N.am      7 UNK        -0.4739 
     45 CA         29.2582   32.4819    1.8526 C.3       7 UNK         0.0276 
     46 CB         30.0918   32.2416    0.5822 C.3       7 UNK        -0.1927 
     47 C          30.1159   32.3511    3.1322 C.2       7 UNK         0.5013 
     48 O          31.2475   32.8419    3.1466 O.2       7 UNK        -0.5193 
     49 N          29.5692   31.6938    4.1694 N.am      8 UNK        -0.4253 
     50 CA         30.1698   31.3384    5.4606 C.3       8 UNK         0.0242 
     51 CB         30.6865   32.5912    6.2026 C.3       8 UNK        -0.2000 
     52 C          31.2538   30.2549    5.3311 C.2       8 UNK         0.4948 
     53 O          31.6272   29.8669    4.2235 O.2       8 UNK        -0.5275 
     54 N          31.7760   29.8009    6.4794 N.am      9 UNK        -0.4246 
     55 CA         32.8745   28.8285    6.5751 C.3       9 UNK         0.0261 
     56 CB         33.0461   28.4034    8.0422 C.3       9 UNK        -0.1959 
     57 C          34.2113   29.3321    5.9915 C.2       9 UNK         0.5033 
     58 O          35.0864   28.5180    5.6965 O.2       9 UNK        -0.5390 
     59 N          34.3389   30.6560    5.8222 N.am      10 UNK        -0.4215 
     60 CA         35.4203   31.3153    5.0892 C.3       10 UNK         0.0240 
     61 CB         35.4373   32.8064    5.4654 C.3       10 UNK        -0.1982 
     62 C          35.3084   31.1505    3.5597 C.2       10 UNK         0.4970 
     63 O          36.3099   31.3571    2.8728 O.2       10 UNK        -0.4916 
     64 N          34.1165   30.7925    3.0581 N.am      11 UNK        -0.4279 
     65 CA         33.7954   30.5699    1.6403 C.3       11 UNK         0.1003 
     66 C          33.9555   31.8484    0.7667 C.2       11 UNK         0.5709 
     67 N          33.5103   33.0024    1.2481 N.am      11 UNK        -0.7358 
     68 O          34.4761   31.8057   -0.3461 O.2       11 UNK        -0.4999 
     69 C69        34.4930   29.3125    1.0409 C.3       12 UNK        -0.0954 
     70 S70        34.2940   27.8122    2.0611 S.3       12 UNK        -0.2268 
     71 C71        32.6203   27.2907    1.5900 C.3       12 UNK         0.0203 
     72 H72        29.1544   17.7487   -0.6476 H         1 UNK         0.0888 
     73 H73        27.4993   17.7773   -1.2590 H         1 UNK         0.0888 
     74 H74        28.8494   17.5479   -2.3740 H         1 UNK         0.0888 
     75 H75        29.9062   19.7938   -0.1443 H         1 UNK         0.3017 
     76 H76        29.7765   22.0175   -1.9130 H         1 UNK         0.0873 
     77 H77        30.8227   23.2741    0.0351 H         1 UNK         0.0745 
     78 H78        31.6950   21.8817   -0.5286 H         1 UNK         0.0745 
     79 H79        33.0874   22.2640    1.6231 H         1 UNK         0.0705 
     80 H80        32.6167   21.7190    3.2115 H         1 UNK         0.0705 
     81 H81        32.9157   24.6271    1.0704 H         1 UNK         0.1334 
     82 H82        31.3577   27.3458    3.9866 H         1 UNK         0.1417 
     83 H83        30.9702   23.1149    4.5780 H         1 UNK         0.1562 
     84 H84        31.0703   25.5861    6.5379 H         1 UNK         0.0748 
     85 H85        29.7405   24.5872    6.0036 H         1 UNK         0.0748 
     86 H86        27.0629   26.5898    4.7235 H         1 UNK         0.0940 
     87 H87        28.3018   25.6319    3.9788 H         1 UNK         0.0940 
     88 H88        29.3078   28.1077    3.3826 H         1 UNK         0.0703 
     89 H89        27.7468   26.2696    1.8231 H         1 UNK         0.3081 
     90 H90        28.4394   27.8364   -1.2761 H         1 UNK         0.0719 
     91 H91        29.5769   25.6645   -1.8372 H         1 UNK         0.0809 
     92 H92        30.6339   26.7399   -0.9367 H         1 UNK         0.0809 
     93 H93        29.8686   25.3850   -0.1189 H         1 UNK         0.0809 
     94 H94        27.3794   25.2707   -0.7584 H         1 UNK         0.2990 
     95 H95        24.2731   26.0784    0.6417 H         1 UNK         0.0690 
     96 H96        24.5726   25.4635   -2.3481 H         1 UNK         0.0788 
     97 H97        23.6937   26.8310   -1.6776 H         1 UNK         0.0788 
     98 H98        23.1262   25.1989   -1.3719 H         1 UNK         0.0788 
     99 H99        24.9632   23.6889   -0.6301 H         1 UNK         0.2993 
    100 H100       26.2513   22.0876    2.1352 H         1 UNK         0.0949 
    101 H101       25.2647   21.7132   -0.7470 H         1 UNK         0.0767 
    102 H102       25.3462   20.4978    0.5173 H         1 UNK         0.0767 
    103 H103       24.2074   21.8216    0.6629 H         1 UNK         0.0767 
    104 H104       28.0829   21.2937    1.1122 H         1 UNK         0.3013 
    105 H105       26.5216   28.7648    1.6312 H         1 UNK         0.3121 
    106 H106       25.3424   30.7567    3.3471 H         1 UNK         0.0774 
    107 H107       24.3637   31.6093    1.2355 H         1 UNK         0.0815 
    108 H108       25.4354   30.5896    0.2869 H         1 UNK         0.0815 
    109 H109       24.1967   29.8623    1.3107 H         1 UNK         0.0815 
    110 H110       28.3331   30.6116    1.5328 H         1 UNK         0.2987 
    111 H111       28.8880   33.5089    1.8219 H         1 UNK         0.0949 
    112 H112       30.5892   31.2713    0.6044 H         1 UNK         0.0806 
    113 H113       29.4726   32.2802   -0.3140 H         1 UNK         0.0806 
    114 H114       30.8611   33.0053    0.4702 H         1 UNK         0.0806 
    115 H115       28.6553   31.2834    4.0215 H         1 UNK         0.3010 
    116 H116       29.3624   30.9031    6.0516 H         1 UNK         0.0829 
    117 H117       30.9413   32.3649    7.2382 H         1 UNK         0.0813 
    118 H118       31.5789   33.0068    5.7336 H         1 UNK         0.0813 
    119 H119       29.9291   33.3748    6.2270 H         1 UNK         0.0813 
    120 H120       31.4079   30.1496    7.3531 H         1 UNK         0.3038 
    121 H121       32.5875   27.9472    5.9982 H         1 UNK         0.0769 
    122 H122       33.3128   29.2472    8.6797 H         1 UNK         0.0811 
    123 H123       33.8357   27.6572    8.1420 H         1 UNK         0.0811 
    124 H124       32.1320   27.9576    8.4353 H         1 UNK         0.0811 
    125 H125       33.5748   31.2421    6.1228 H         1 UNK         0.3204 
    126 H126       36.3682   30.8702    5.3993 H         1 UNK         0.0748 
    127 H127       36.2556   33.3258    4.9645 H         1 UNK         0.0771 
    128 H128       34.5109   33.3061    5.1781 H         1 UNK         0.0771 
    129 H129       35.5770   32.9449    6.5378 H         1 UNK         0.0771 
    130 H130       33.3387   30.6184    3.6865 H         1 UNK         0.2980 
    131 H131       32.7244   30.3681    1.6241 H         1 UNK         0.0545 
    132 H132       33.6133   33.8403    0.6995 H         1 UNK         0.3459 
    133 H133       32.9766   33.0210    2.1109 H         1 UNK         0.3459 
    134 H134       34.1106   29.1041    0.0402 H         1 UNK         0.0616 
    135 H135       35.5626   29.4942    0.9247 H         1 UNK         0.0616 
    136 H136       32.6053   27.0318    0.5307 H         1 UNK         0.0634 
    137 H137       31.9279   28.1238    1.7194 H         1 UNK         0.0634 
@<TRIPOS>BOND
     1    1    2 1    
     2    1   72 1    
     3    1   73 1    
     4    1   74 1    
     5    2    3 2    
     6    2    4 am   BACKBONE|DICT|INTERRES
     7    4    5 1    
     8    4   75 1    
     9    5    6 1    
    10    5   35 1    
    11    5   76 1    
    12    6    7 1    
    13    6   77 1    
    14    6   78 1    
    15    7    8 1    
    16    8    9 1    
    17    8   79 1    
    18    8   80 1    
    19    9   10 ar   
    20    9   14 ar   
    21   10   11 ar   
    22   10   81 1    
    23   11   12 ar   
    24   11   71 1    
    25   12   13 ar   
    26   12   82 1    
    27   13   14 ar   
    28   13   15 1    
    29   14   83 1    
    30   15   16 1    
    31   15   84 1    
    32   15   85 1    
    33   16   17 1    
    34   17   18 1    
    35   17   86 1    
    36   17   87 1    
    37   18   19 1    
    38   18   37 1    
    39   18   88 1    
    40   19   20 am   BACKBONE|DICT|INTERRES
    41   19   89 1    
    42   20   21 2    
    43   20   22 1    
    44   22   23 1    
    45   22   24 1    
    46   22   90 1    
    47   23   91 1    
    48   23   92 1    
    49   23   93 1    
    50   24   25 am   BACKBONE|DICT|INTERRES
    51   24   94 1    
    52   25   26 2    
    53   25   27 1    
    54   27   28 1    
    55   27   29 1    
    56   27   95 1    
    57   28   96 1    
    58   28   97 1    
    59   28   98 1    
    60   29   30 am   BACKBONE|DICT|INTERRES
    61   29   99 1    
    62   30   31 2    
    63   30   32 1    
    64   32   33 1    
    65   32   34 1    
    66   32  100 1    
    67   33  101 1    
    68   33  102 1    
    69   33  103 1    
    70   34   35 am   BACKBONE|DICT|INTERRES
    71   34  104 1    
    72   35   36 2    
    73   37   38 2    
    74   37   39 am   BACKBONE|DICT|INTERRES
    75   39   40 1    
    76   39  105 1    
    77   40   41 1    
    78   40   42 1    
    79   40  106 1    
    80   41  107 1    
    81   41  108 1    
    82   41  109 1    
    83   42   43 2    
    84   42   44 am   BACKBONE|DICT|INTERRES
    85   44   45 1    
    86   44  110 1    
    87   45   46 1    
    88   45   47 1    
    89   45  111 1    
    90   46  112 1    
    91   46  113 1    
    92   46  114 1    
    93   47   48 2    
    94   47   49 am   BACKBONE|DICT|INTERRES
    95   49   50 1    
    96   49  115 1    
    97   50   51 1    
    98   50   52 1    
    99   50  116 1    
   100   51  117 1    
   101   51  118 1    
   102   51  119 1    
   103   52   53 2    
   104   52   54 am   BACKBONE|DICT|INTERRES
   105   54   55 1    
   106   54  120 1    
   107   55   56 1    
   108   55   57 1    
   109   55  121 1    
   110   56  122 1    
   111   56  123 1    
   112   56  124 1    
   113   57   58 2    
   114   57   59 am   BACKBONE|DICT|INTERRES
   115   59   60 1    
   116   59  125 1    
   117   60   61 1    
   118   60   62 1    
   119   60  126 1    
   120   61  127 1    
   121   61  128 1    
   122   61  129 1    
   123   62   63 2    
   124   62   64 am   BACKBONE|DICT|INTERRES
   125   64   65 1    
   126   64  130 1    
   127   65   66 1    
   128   65   69 1    
   129   65  131 1    
   130   66   67 am   BACKBONE|DICT|INTERRES
   131   66   68 2    
   132   67  132 1    
   133   67  133 1    
   134   69   70 1    
   135   69  134 1    
   136   69  135 1    
   137   70   71 1    
   138   71  136 1    
   139   71  137 1    
@<TRIPOS>SUBSTRUCTURE
     1 UNK         1 GROUP             0       ****    0 ROOT    
