@<TRIPOS>MOLECULE
3R136
137   139    1
SMALL
USER_CHARGES


@<TRIPOS>ATOM
      1 CA         28.6846   20.5337    1.7594 C.3       0 UNK        -0.1979 
      2 C          29.0515   21.0178    0.3639 C.2       0 UNK         0.4864 
      3 O          28.8616   20.2863   -0.6093 O.2       0 UNK        -0.5359 
      4 N          29.5812   22.2423    0.2617 N.am      1 UNK        -0.4318 
      5 CA         29.9028   22.9217   -0.9955 C.3       1 UNK         0.0824 
      6 C6         30.9336   24.0648   -0.7844 C.3       12 UNK        -0.0944 
      7 S7         30.4949   25.2350    0.5517 S.3       12 UNK        -0.2672 
      8 C8         31.6687   24.7254    1.8465 C.3       12 UNK         0.0333 
      9 C9         31.2304   25.2258    3.2129 C.ar      12 UNK        -0.0807 
     10 C10        31.7368   26.4207    3.7303 C.ar      12 UNK        -0.0894 
     11 C11        31.3273   26.8810    4.9862 C.ar      12 UNK        -0.0804 
     12 C12        30.4031   26.1360    5.7263 C.ar      12 UNK        -0.0824 
     13 C13        29.8863   24.9413    5.2141 C.ar      12 UNK        -0.0762 
     14 C14        30.3113   24.4879    3.9626 C.ar      12 UNK        -0.0782 
     15 C15        28.8498   24.1448    5.9921 C.3       12 UNK         0.0230 
     16 S16        27.2134   24.2255    5.1933 S.3       12 UNK        -0.2608 
     17 C17        26.7315   25.9568    5.5103 C.3       12 UNK        -0.0989 
     18 CA         27.1291   26.9255    4.3676 C.3       5 UNK         0.0716 
     19 N          26.5789   26.5230    3.0701 N.am      5 UNK        -0.4135 
     20 C          26.8636   27.1077    1.8986 C.2       4 UNK         0.5031 
     21 O          27.6107   28.0816    1.7872 O.2       4 UNK        -0.5229 
     22 CA         26.1764   26.4877    0.6694 C.3       4 UNK         0.0329 
     23 CB         24.7147   26.9646    0.5441 C.3       4 UNK        -0.2001 
     24 N          26.9202   26.6695   -0.5847 N.am      4 UNK        -0.4303 
     25 C          27.0854   27.7800   -1.3242 C.2       3 UNK         0.5044 
     26 O          26.5887   28.8748   -1.0611 O.2       3 UNK        -0.5152 
     27 CA         27.9241   27.6565   -2.6153 C.3       3 UNK         0.0319 
     28 CB         29.2990   28.3258   -2.4550 C.3       3 UNK        -0.2001 
     29 N          28.1247   26.2787   -3.0675 N.am      3 UNK        -0.4354 
     30 C          27.1804   25.4939   -3.6054 C.2       2 UNK         0.4964 
     31 O          26.0422   25.8775   -3.8758 O.2       2 UNK        -0.5047 
     32 CA         27.5632   24.0235   -3.8650 C.3       2 UNK         0.0288 
     33 CB         27.9260   23.8156   -5.3447 C.3       2 UNK        -0.2113 
     34 N          28.6635   23.5303   -3.0243 N.am      2 UNK        -0.4145 
     35 C          28.6207   23.4290   -1.6871 C.2       1 UNK         0.5006 
     36 O          27.6440   23.7635   -1.0104 O.2       1 UNK        -0.5103 
     37 C          26.7307   28.3670    4.7349 C.2       5 UNK         0.5055 
     38 O          25.6032   28.7800    4.4535 O.2       5 UNK        -0.5220 
     39 N          27.6702   29.1008    5.3479 N.am      6 UNK        -0.4450 
     40 CA         27.6074   30.5091    5.7731 C.3       6 UNK         0.0367 
     41 CB         26.4580   30.7568    6.7701 C.3       6 UNK        -0.1929 
     42 C          27.5763   31.5299    4.6185 C.2       6 UNK         0.5070 
     43 O          28.1200   32.6231    4.7780 O.2       6 UNK        -0.5237 
     44 N          26.9716   31.1683    3.4799 N.am      7 UNK        -0.4739 
     45 CA         27.0451   31.9084    2.2204 C.3       7 UNK         0.0276 
     46 CB         25.9672   31.3905    1.2566 C.3       7 UNK        -0.1927 
     47 C          28.4497   31.8138    1.6006 C.2       7 UNK         0.5013 
     48 O          28.9944   32.8344    1.1765 O.2       7 UNK        -0.5193 
     49 N          29.0265   30.6040    1.6003 N.am      8 UNK        -0.4253 
     50 CA         30.4321   30.3561    1.2878 C.3       8 UNK         0.0242 
     51 CB         30.6354   28.8494    1.0685 C.3       8 UNK        -0.2000 
     52 C          31.3367   30.8360    2.4332 C.2       8 UNK         0.4948 
     53 O          30.9992   30.6356    3.6013 O.2       8 UNK        -0.5275 
     54 N          32.4945   31.4039    2.0763 N.am      9 UNK        -0.4246 
     55 CA         33.5390   31.8241    3.0185 C.3       9 UNK         0.0261 
     56 CB         34.1385   33.1538    2.5288 C.3       9 UNK        -0.1959 
     57 C          34.6471   30.7666    3.1895 C.2       9 UNK         0.5033 
     58 O          35.5435   30.9670    4.0103 O.2       9 UNK        -0.5390 
     59 N          34.5863   29.6744    2.4113 N.am      10 UNK        -0.4215 
     60 CA         35.6219   28.6420    2.2723 C.3       10 UNK         0.0240 
     61 CB         35.1618   27.6110    1.2274 C.3       10 UNK        -0.1982 
     62 C          36.0452   27.9333    3.5724 C.2       10 UNK         0.4970 
     63 O          37.1763   27.4512    3.6442 O.2       10 UNK        -0.4916 
     64 N          35.1494   27.8833    4.5651 N.am      11 UNK        -0.4279 
     65 CA         35.4233   27.3495    5.9059 C.3       11 UNK         0.1003 
     66 C          36.2105   28.3148    6.8425 C.2       11 UNK         0.5709 
     67 N          36.4560   29.5658    6.4667 N.am      11 UNK        -0.7358 
     68 O          36.6251   27.9118    7.9269 O.2       11 UNK        -0.4999 
     69 C69        34.1420   26.7669    6.5592 C.3       12 UNK        -0.0954 
     70 S70        32.8750   27.9966    7.0375 S.3       12 UNK        -0.2268 
     71 C71        31.8720   28.1945    5.5292 C.3       12 UNK         0.0203 
     72 H72        28.8907   21.2863    2.5204 H         1 UNK         0.0888 
     73 H73        27.6235   20.2902    1.8042 H         1 UNK         0.0888 
     74 H74        29.2516   19.6367    2.0068 H         1 UNK         0.0888 
     75 H75        29.6609   22.8234    1.0827 H         1 UNK         0.3017 
     76 H76        30.3595   22.1853   -1.6609 H         1 UNK         0.0873 
     77 H77        31.9103   23.6297   -0.5673 H         1 UNK         0.0745 
     78 H78        31.0791   24.6338   -1.7046 H         1 UNK         0.0745 
     79 H79        31.7490   23.6375    1.8691 H         1 UNK         0.0705 
     80 H80        32.6627   25.1010    1.5995 H         1 UNK         0.0705 
     81 H81        32.4431   26.9954    3.1489 H         1 UNK         0.1334 
     82 H82        30.0831   26.4925    6.6959 H         1 UNK         0.1417 
     83 H83        29.9067   23.5677    3.5651 H         1 UNK         0.1562 
     84 H84        28.7752   24.4933    7.0233 H         1 UNK         0.0748 
     85 H85        29.1656   23.1019    6.0446 H         1 UNK         0.0748 
     86 H86        27.1716   26.2751    6.4576 H         1 UNK         0.0940 
     87 H87        25.6505   25.9776    5.6640 H         1 UNK         0.0940 
     88 H88        28.2127   26.9056    4.2496 H         1 UNK         0.0703 
     89 H89        25.9444   25.7390    3.0878 H         1 UNK         0.3081 
     90 H90        26.1587   25.4077    0.8252 H         1 UNK         0.0719 
     91 H91        24.6450   28.0504    0.4714 H         1 UNK         0.0809 
     92 H92        24.2305   26.5362   -0.3335 H         1 UNK         0.0809 
     93 H93        24.1301   26.6661    1.4150 H         1 UNK         0.0809 
     94 H94        27.3804   25.8256   -0.9071 H         1 UNK         0.2990 
     95 H95        27.3790   28.1932   -3.3947 H         1 UNK         0.0690 
     96 H96        29.7916   28.4457   -3.4200 H         1 UNK         0.0788 
     97 H97        29.9603   27.7390   -1.8173 H         1 UNK         0.0788 
     98 H98        29.2081   29.3199   -2.0140 H         1 UNK         0.0788 
     99 H99        29.0352   25.8780   -2.8992 H         1 UNK         0.2993 
    100 H100       26.6809   23.4202   -3.6398 H         1 UNK         0.0949 
    101 H101       28.1060   22.7633   -5.5659 H         1 UNK         0.0767 
    102 H102       27.1153   24.1465   -5.9957 H         1 UNK         0.0767 
    103 H103       28.8184   24.3768   -5.6249 H         1 UNK         0.0767 
    104 H104       29.5013   23.2404   -3.5089 H         1 UNK         0.3013 
    105 H105       28.5731   28.6692    5.4868 H         1 UNK         0.3121 
    106 H106       28.5426   30.6877    6.3067 H         1 UNK         0.0774 
    107 H107       26.5079   31.7693    7.1726 H         1 UNK         0.0815 
    108 H108       25.4790   30.6458    6.3036 H         1 UNK         0.0815 
    109 H109       26.5089   30.0696    7.6146 H         1 UNK         0.0815 
    110 H110       26.5028   30.2685    3.4646 H         1 UNK         0.2987 
    111 H111       26.8425   32.9619    2.4259 H         1 UNK         0.0949 
    112 H112       26.0650   30.3185    1.0841 H         1 UNK         0.0806 
    113 H113       24.9662   31.5746    1.6465 H         1 UNK         0.0806 
    114 H114       26.0361   31.8851    0.2869 H         1 UNK         0.0806 
    115 H115       28.4871   29.7991    1.9095 H         1 UNK         0.3010 
    116 H116       30.6817   30.8879    0.3672 H         1 UNK         0.0829 
    117 H117       29.9369   28.4604    0.3308 H         1 UNK         0.0813 
    118 H118       31.6435   28.6247    0.7194 H         1 UNK         0.0813 
    119 H119       30.4688   28.2856    1.9873 H         1 UNK         0.0813 
    120 H120       32.6854   31.5542    1.0949 H         1 UNK         0.3038 
    121 H121       33.1039   31.9952    4.0057 H         1 UNK         0.0769 
    122 H122       33.3733   33.9257    2.4444 H         1 UNK         0.0811 
    123 H123       34.6190   33.0484    1.5552 H         1 UNK         0.0811 
    124 H124       34.8922   33.5241    3.2253 H         1 UNK         0.0811 
    125 H125       33.8046   29.6049    1.7783 H         1 UNK         0.3204 
    126 H126       36.5130   29.1404    1.8851 H         1 UNK         0.0748 
    127 H127       34.9878   28.0771    0.2572 H         1 UNK         0.0771 
    128 H128       35.9184   26.8389    1.0792 H         1 UNK         0.0771 
    129 H129       34.2419   27.1101    1.5291 H         1 UNK         0.0771 
    130 H130       34.2598   28.3384    4.4421 H         1 UNK         0.2980 
    131 H131       36.0926   26.4975    5.7722 H         1 UNK         0.0545 
    132 H132       36.1257   29.9258    5.5768 H         1 UNK         0.3459 
    133 H133       36.9732   30.1690    7.0857 H         1 UNK         0.3459 
    134 H134       34.4136   26.2201    7.4637 H         1 UNK         0.0616 
    135 H135       33.6999   26.0168    5.9032 H         1 UNK         0.0616 
    136 H136       32.4659   28.7102    4.7751 H         1 UNK         0.0634 
    137 H137       31.0362   28.8577    5.7551 H         1 UNK         0.0634 
@<TRIPOS>BOND
     1    1    2 1    
     2    1   72 1    
     3    1   73 1    
     4    1   74 1    
     5    2    3 2    
     6    2    4 am   BACKBONE|DICT|INTERRES
     7    4    5 1    
     8    4   75 1    
     9    5    6 1    
    10    5   35 1    
    11    5   76 1    
    12    6    7 1    
    13    6   77 1    
    14    6   78 1    
    15    7    8 1    
    16    8    9 1    
    17    8   79 1    
    18    8   80 1    
    19    9   10 ar   
    20    9   14 ar   
    21   10   11 ar   
    22   10   81 1    
    23   11   12 ar   
    24   11   71 1    
    25   12   13 ar   
    26   12   82 1    
    27   13   14 ar   
    28   13   15 1    
    29   14   83 1    
    30   15   16 1    
    31   15   84 1    
    32   15   85 1    
    33   16   17 1    
    34   17   18 1    
    35   17   86 1    
    36   17   87 1    
    37   18   19 1    
    38   18   37 1    
    39   18   88 1    
    40   19   20 am   BACKBONE|DICT|INTERRES
    41   19   89 1    
    42   20   21 2    
    43   20   22 1    
    44   22   23 1    
    45   22   24 1    
    46   22   90 1    
    47   23   91 1    
    48   23   92 1    
    49   23   93 1    
    50   24   25 am   BACKBONE|DICT|INTERRES
    51   24   94 1    
    52   25   26 2    
    53   25   27 1    
    54   27   28 1    
    55   27   29 1    
    56   27   95 1    
    57   28   96 1    
    58   28   97 1    
    59   28   98 1    
    60   29   30 am   BACKBONE|DICT|INTERRES
    61   29   99 1    
    62   30   31 2    
    63   30   32 1    
    64   32   33 1    
    65   32   34 1    
    66   32  100 1    
    67   33  101 1    
    68   33  102 1    
    69   33  103 1    
    70   34   35 am   BACKBONE|DICT|INTERRES
    71   34  104 1    
    72   35   36 2    
    73   37   38 2    
    74   37   39 am   BACKBONE|DICT|INTERRES
    75   39   40 1    
    76   39  105 1    
    77   40   41 1    
    78   40   42 1    
    79   40  106 1    
    80   41  107 1    
    81   41  108 1    
    82   41  109 1    
    83   42   43 2    
    84   42   44 am   BACKBONE|DICT|INTERRES
    85   44   45 1    
    86   44  110 1    
    87   45   46 1    
    88   45   47 1    
    89   45  111 1    
    90   46  112 1    
    91   46  113 1    
    92   46  114 1    
    93   47   48 2    
    94   47   49 am   BACKBONE|DICT|INTERRES
    95   49   50 1    
    96   49  115 1    
    97   50   51 1    
    98   50   52 1    
    99   50  116 1    
   100   51  117 1    
   101   51  118 1    
   102   51  119 1    
   103   52   53 2    
   104   52   54 am   BACKBONE|DICT|INTERRES
   105   54   55 1    
   106   54  120 1    
   107   55   56 1    
   108   55   57 1    
   109   55  121 1    
   110   56  122 1    
   111   56  123 1    
   112   56  124 1    
   113   57   58 2    
   114   57   59 am   BACKBONE|DICT|INTERRES
   115   59   60 1    
   116   59  125 1    
   117   60   61 1    
   118   60   62 1    
   119   60  126 1    
   120   61  127 1    
   121   61  128 1    
   122   61  129 1    
   123   62   63 2    
   124   62   64 am   BACKBONE|DICT|INTERRES
   125   64   65 1    
   126   64  130 1    
   127   65   66 1    
   128   65   69 1    
   129   65  131 1    
   130   66   67 am   BACKBONE|DICT|INTERRES
   131   66   68 2    
   132   67  132 1    
   133   67  133 1    
   134   69   70 1    
   135   69  134 1    
   136   69  135 1    
   137   70   71 1    
   138   71  136 1    
   139   71  137 1    
@<TRIPOS>SUBSTRUCTURE
     1 UNK         1 GROUP             0       ****    0 ROOT    
