@<TRIPOS>MOLECULE
3R136
137   139    1
SMALL
USER_CHARGES


@<TRIPOS>ATOM
      1 CA         33.4286   27.0597   -2.4391 C.3       0 UNK        -0.1979 
      2 C          32.1850   27.2362   -1.5806 C.2       0 UNK         0.4864 
      3 O          31.5637   28.2983   -1.6130 O.2       0 UNK        -0.5359 
      4 N          31.8139   26.1995   -0.8168 N.am      1 UNK        -0.4318 
      5 CA         30.6604   26.1976    0.0950 C.3       1 UNK         0.0824 
      6 C6         30.7043   25.0144    1.0943 C.3       12 UNK        -0.0944 
      7 S7         32.2964   24.8876    1.9769 S.3       12 UNK        -0.2672 
      8 C8         32.1040   23.2834    2.8140 C.3       12 UNK         0.0333 
      9 C9         31.2843   23.4284    4.0855 C.ar      12 UNK        -0.0807 
     10 C10        31.9164   23.7887    5.2768 C.ar      12 UNK        -0.0894 
     11 C11        31.1788   23.9819    6.4478 C.ar      12 UNK        -0.0804 
     12 C12        29.7948   23.7774    6.4235 C.ar      12 UNK        -0.0824 
     13 C13        29.1541   23.3737    5.2466 C.ar      12 UNK        -0.0762 
     14 C14        29.9047   23.2056    4.0782 C.ar      12 UNK        -0.0782 
     15 C15        27.6606   23.0709    5.2528 C.3       12 UNK         0.0230 
     16 S16        26.7242   24.0641    4.0479 S.3       12 UNK        -0.2608 
     17 C17        26.8446   25.7431    4.7571 C.3       12 UNK        -0.0989 
     18 CA         27.4180   26.7655    3.7406 C.3       5 UNK         0.0716 
     19 N          26.6774   26.8085    2.4651 N.am      5 UNK        -0.4135 
     20 C          25.3747   27.0751    2.2733 C.2       4 UNK         0.5031 
     21 O          24.6110   27.4483    3.1636 O.2       4 UNK        -0.5229 
     22 CA         24.8366   26.9348    0.8456 C.3       4 UNK         0.0329 
     23 CB         25.0604   28.2383    0.0611 C.3       4 UNK        -0.2001 
     24 N          25.4938   25.8354    0.1467 N.am      4 UNK        -0.4303 
     25 C          25.0567   24.5697    0.0902 C.2       3 UNK         0.5044 
     26 O          24.0053   24.1904    0.6085 O.2       3 UNK        -0.5152 
     27 CA         25.9460   23.5473   -0.6569 C.3       3 UNK         0.0319 
     28 CB         25.1197   22.5768   -1.5273 C.3       3 UNK        -0.2001 
     29 N          27.0363   24.1624   -1.4306 N.am      3 UNK        -0.4354 
     30 C          26.9274   25.0137   -2.4639 C.2       2 UNK         0.4964 
     31 O          25.8662   25.2564   -3.0397 O.2       2 UNK        -0.5047 
     32 CA         28.2047   25.7674   -2.8906 C.3       2 UNK         0.0288 
     33 CB         27.8955   27.2254   -3.2949 C.3       2 UNK        -0.2113 
     34 N          29.3018   25.7519   -1.9087 N.am      2 UNK        -0.4145 
     35 C          29.3060   26.2182   -0.6464 C.2       1 UNK         0.5006 
     36 O          28.3022   26.6252   -0.0542 O.2       1 UNK        -0.5103 
     37 C          27.6201   28.1506    4.3984 C.2       5 UNK         0.5055 
     38 O          28.6255   28.3514    5.0771 O.2       5 UNK        -0.5220 
     39 N          26.6959   29.0898    4.1653 N.am      6 UNK        -0.4450 
     40 CA         26.7847   30.5034    4.5368 C.3       6 UNK         0.0367 
     41 CB         25.3579   31.0539    4.7052 C.3       6 UNK        -0.1929 
     42 C          27.5779   31.3450    3.5151 C.2       6 UNK         0.5070 
     43 O          27.7303   32.5494    3.7248 O.2       6 UNK        -0.5237 
     44 N          28.0442   30.7202    2.4224 N.am      7 UNK        -0.4739 
     45 CA         28.8722   31.3258    1.3758 C.3       7 UNK         0.0276 
     46 CB         29.1086   30.2855    0.2672 C.3       7 UNK        -0.1927 
     47 C          30.2171   31.8324    1.9254 C.2       7 UNK         0.5013 
     48 O          30.8075   31.1758    2.7836 O.2       7 UNK        -0.5193 
     49 N          30.6992   32.9651    1.3963 N.am      8 UNK        -0.4253 
     50 CA         31.9020   33.6704    1.8635 C.3       8 UNK         0.0242 
     51 CB         32.0579   34.9785    1.0700 C.3       8 UNK        -0.2000 
     52 C          33.2093   32.8550    1.8128 C.2       8 UNK         0.4948 
     53 O          34.1315   33.1549    2.5718 O.2       8 UNK        -0.5275 
     54 N          33.2686   31.8497    0.9301 N.am      9 UNK        -0.4246 
     55 CA         34.3976   30.9297    0.7934 C.3       9 UNK         0.0261 
     56 CB         34.4572   30.4320   -0.6595 C.3       9 UNK        -0.1959 
     57 C          34.3577   29.7459    1.7809 C.2       9 UNK         0.5033 
     58 O          35.3658   29.0461    1.8898 O.2       9 UNK        -0.5390 
     59 N          33.2307   29.5199    2.4743 N.am      10 UNK        -0.4215 
     60 CA         33.0960   28.4746    3.4935 C.3       10 UNK         0.0240 
     61 CB         31.6030   28.1671    3.7017 C.3       10 UNK        -0.1982 
     62 C          33.7380   28.9280    4.8225 C.2       10 UNK         0.4970 
     63 O          33.7984   30.1315    5.0777 O.2       10 UNK        -0.4916 
     64 N          34.1833   28.0192    5.6999 N.am      11 UNK        -0.4279 
     65 CA         34.2457   26.5551    5.5483 C.3       11 UNK         0.1003 
     66 C          35.4752   26.0456    4.7391 C.2       11 UNK         0.5709 
     67 N          36.3909   26.9014    4.3033 N.am      11 UNK        -0.7358 
     68 O          35.5913   24.8486    4.4899 O.2       11 UNK        -0.4999 
     69 C69        34.1573   25.8590    6.9334 C.3       12 UNK        -0.0954 
     70 S70        32.5221   26.0768    7.7188 S.3       12 UNK        -0.2268 
     71 C71        31.8766   24.3707    7.7463 C.3       12 UNK         0.0203 
     72 H72        33.8097   26.0394   -2.3989 H         1 UNK         0.0888 
     73 H73        33.2033   27.2957   -3.4787 H         1 UNK         0.0888 
     74 H74        34.2181   27.7293   -2.1008 H         1 UNK         0.0888 
     75 H75        32.3823   25.3641   -0.7992 H         1 UNK         0.3017 
     76 H76        30.7076   27.1238    0.6690 H         1 UNK         0.0873 
     77 H77        29.9117   25.1183    1.8377 H         1 UNK         0.0745 
     78 H78        30.5238   24.0700    0.5770 H         1 UNK         0.0745 
     79 H79        33.0948   22.8961    3.0575 H         1 UNK         0.0705 
     80 H80        31.6510   22.5560    2.1387 H         1 UNK         0.0705 
     81 H81        32.9872   23.9248    5.2823 H         1 UNK         0.1334 
     82 H82        29.2191   23.9074    7.3299 H         1 UNK         0.1417 
     83 H83        29.4120   22.9026    3.1643 H         1 UNK         0.1562 
     84 H84        27.2319   23.2209    6.2450 H         1 UNK         0.0748 
     85 H85        27.5190   22.0152    5.0173 H         1 UNK         0.0748 
     86 H86        27.4697   25.7125    5.6518 H         1 UNK         0.0940 
     87 H87        25.8520   26.0445    5.0962 H         1 UNK         0.0940 
     88 H88        28.4196   26.4237    3.4730 H         1 UNK         0.0703 
     89 H89        27.2302   26.5868    1.6435 H         1 UNK         0.3081 
     90 H90        23.7623   26.7468    0.9028 H         1 UNK         0.0719 
     91 H91        24.5744   29.0809    0.5551 H         1 UNK         0.0809 
     92 H92        26.1198   28.4800   -0.0330 H         1 UNK         0.0809 
     93 H93        24.6451   28.1688   -0.9445 H         1 UNK         0.0809 
     94 H94        26.3936   26.0472   -0.2706 H         1 UNK         0.2990 
     95 H95        26.4311   22.9564    0.1215 H         1 UNK         0.0690 
     96 H96        24.5313   23.1037   -2.2788 H         1 UNK         0.0788 
     97 H97        24.4218   22.0026   -0.9167 H         1 UNK         0.0788 
     98 H98        25.7607   21.8616   -2.0425 H         1 UNK         0.0788 
     99 H99        27.9611   24.0284   -1.0476 H         1 UNK         0.2993 
    100 H100       28.5759   25.2476   -3.7752 H         1 UNK         0.0949 
    101 H101       27.4533   27.7870   -2.4709 H         1 UNK         0.0767 
    102 H102       28.7987   27.7496   -3.6082 H         1 UNK         0.0767 
    103 H103       27.1949   27.2655   -4.1300 H         1 UNK         0.0767 
    104 H104       30.1847   25.4119   -2.2640 H         1 UNK         0.3013 
    105 H105       25.8557   28.7939    3.6758 H         1 UNK         0.3121 
    106 H106       27.3007   30.5872    5.4956 H         1 UNK         0.0774 
    107 H107       25.3742   32.0949    5.0310 H         1 UNK         0.0815 
    108 H108       24.7970   31.0131    3.7706 H         1 UNK         0.0815 
    109 H109       24.8017   30.4914    5.4554 H         1 UNK         0.0815 
    110 H110       27.8873   29.7271    2.3528 H         1 UNK         0.2987 
    111 H111       28.3187   32.1705    0.9602 H         1 UNK         0.0949 
    112 H112       29.7038   30.7029   -0.5462 H         1 UNK         0.0806 
    113 H113       29.6435   29.4114    0.6411 H         1 UNK         0.0806 
    114 H114       28.1699   29.9414   -0.1669 H         1 UNK         0.0806 
    115 H115       30.1630   33.4280    0.6760 H         1 UNK         0.3010 
    116 H116       31.7338   33.9271    2.9117 H         1 UNK         0.0829 
    117 H117       31.1884   35.6248    1.1921 H         1 UNK         0.0813 
    118 H118       32.9267   35.5426    1.4126 H         1 UNK         0.0813 
    119 H119       32.1920   34.7903    0.0040 H         1 UNK         0.0813 
    120 H120       32.4650   31.6788    0.3432 H         1 UNK         0.3038 
    121 H121       35.3231   31.4744    0.9932 H         1 UNK         0.0769 
    122 H122       34.6128   31.2574   -1.3544 H         1 UNK         0.0811 
    123 H123       35.2805   29.7309   -0.8027 H         1 UNK         0.0811 
    124 H124       33.5378   29.9235   -0.9458 H         1 UNK         0.0811 
    125 H125       32.4651   30.1865    2.4206 H         1 UNK         0.3204 
    126 H126       33.5896   27.5780    3.1167 H         1 UNK         0.0748 
    127 H127       31.0965   27.9685    2.7594 H         1 UNK         0.0771 
    128 H128       31.4561   27.2923    4.3355 H         1 UNK         0.0771 
    129 H129       31.0880   28.9979    4.1848 H         1 UNK         0.0771 
    130 H130       34.5714   28.3621    6.5654 H         1 UNK         0.2980 
    131 H131       33.3787   26.2320    4.9743 H         1 UNK         0.0545 
    132 H132       36.2982   27.8904    4.4713 H         1 UNK         0.3459 
    133 H133       37.1718   26.5546    3.7693 H         1 UNK         0.3459 
    134 H134       34.3745   24.7928    6.8590 H         1 UNK         0.0616 
    135 H135       34.9159   26.2607    7.6073 H         1 UNK         0.0616 
    136 H136       31.1809   24.2906    8.5828 H         1 UNK         0.0634 
    137 H137       32.6803   23.6654    7.9615 H         1 UNK         0.0634 
@<TRIPOS>BOND
     1    1    2 1    
     2    1   72 1    
     3    1   73 1    
     4    1   74 1    
     5    2    3 2    
     6    2    4 am   BACKBONE|DICT|INTERRES
     7    4    5 1    
     8    4   75 1    
     9    5    6 1    
    10    5   35 1    
    11    5   76 1    
    12    6    7 1    
    13    6   77 1    
    14    6   78 1    
    15    7    8 1    
    16    8    9 1    
    17    8   79 1    
    18    8   80 1    
    19    9   10 ar   
    20    9   14 ar   
    21   10   11 ar   
    22   10   81 1    
    23   11   12 ar   
    24   11   71 1    
    25   12   13 ar   
    26   12   82 1    
    27   13   14 ar   
    28   13   15 1    
    29   14   83 1    
    30   15   16 1    
    31   15   84 1    
    32   15   85 1    
    33   16   17 1    
    34   17   18 1    
    35   17   86 1    
    36   17   87 1    
    37   18   19 1    
    38   18   37 1    
    39   18   88 1    
    40   19   20 am   BACKBONE|DICT|INTERRES
    41   19   89 1    
    42   20   21 2    
    43   20   22 1    
    44   22   23 1    
    45   22   24 1    
    46   22   90 1    
    47   23   91 1    
    48   23   92 1    
    49   23   93 1    
    50   24   25 am   BACKBONE|DICT|INTERRES
    51   24   94 1    
    52   25   26 2    
    53   25   27 1    
    54   27   28 1    
    55   27   29 1    
    56   27   95 1    
    57   28   96 1    
    58   28   97 1    
    59   28   98 1    
    60   29   30 am   BACKBONE|DICT|INTERRES
    61   29   99 1    
    62   30   31 2    
    63   30   32 1    
    64   32   33 1    
    65   32   34 1    
    66   32  100 1    
    67   33  101 1    
    68   33  102 1    
    69   33  103 1    
    70   34   35 am   BACKBONE|DICT|INTERRES
    71   34  104 1    
    72   35   36 2    
    73   37   38 2    
    74   37   39 am   BACKBONE|DICT|INTERRES
    75   39   40 1    
    76   39  105 1    
    77   40   41 1    
    78   40   42 1    
    79   40  106 1    
    80   41  107 1    
    81   41  108 1    
    82   41  109 1    
    83   42   43 2    
    84   42   44 am   BACKBONE|DICT|INTERRES
    85   44   45 1    
    86   44  110 1    
    87   45   46 1    
    88   45   47 1    
    89   45  111 1    
    90   46  112 1    
    91   46  113 1    
    92   46  114 1    
    93   47   48 2    
    94   47   49 am   BACKBONE|DICT|INTERRES
    95   49   50 1    
    96   49  115 1    
    97   50   51 1    
    98   50   52 1    
    99   50  116 1    
   100   51  117 1    
   101   51  118 1    
   102   51  119 1    
   103   52   53 2    
   104   52   54 am   BACKBONE|DICT|INTERRES
   105   54   55 1    
   106   54  120 1    
   107   55   56 1    
   108   55   57 1    
   109   55  121 1    
   110   56  122 1    
   111   56  123 1    
   112   56  124 1    
   113   57   58 2    
   114   57   59 am   BACKBONE|DICT|INTERRES
   115   59   60 1    
   116   59  125 1    
   117   60   61 1    
   118   60   62 1    
   119   60  126 1    
   120   61  127 1    
   121   61  128 1    
   122   61  129 1    
   123   62   63 2    
   124   62   64 am   BACKBONE|DICT|INTERRES
   125   64   65 1    
   126   64  130 1    
   127   65   66 1    
   128   65   69 1    
   129   65  131 1    
   130   66   67 am   BACKBONE|DICT|INTERRES
   131   66   68 2    
   132   67  132 1    
   133   67  133 1    
   134   69   70 1    
   135   69  134 1    
   136   69  135 1    
   137   70   71 1    
   138   71  136 1    
   139   71  137 1    
@<TRIPOS>SUBSTRUCTURE
     1 UNK         1 GROUP             0       ****    0 ROOT    
