@<TRIPOS>MOLECULE
3R136
137   139    1
SMALL
USER_CHARGES


@<TRIPOS>ATOM
      1 CA         32.6438   29.9105   -3.7305 C.3       0 UNK        -0.1979 
      2 C          31.7043   29.5459   -2.5906 C.2       0 UNK         0.4864 
      3 O          31.3160   30.4220   -1.8170 O.2       0 UNK        -0.5359 
      4 N          31.3467   28.2603   -2.4769 N.am      1 UNK        -0.4318 
      5 CA         30.4006   27.7445   -1.4852 C.3       1 UNK         0.0824 
      6 C6         30.6099   26.2251   -1.2552 C.3       12 UNK        -0.0944 
      7 S7         29.9370   25.6640    0.3437 S.3       12 UNK        -0.2672 
      8 C8         31.4496   25.2160    1.2500 C.3       12 UNK         0.0333 
      9 C9         31.1465   24.9776    2.7206 C.ar      12 UNK        -0.0807 
     10 C10        31.0075   26.0577    3.5967 C.ar      12 UNK        -0.0894 
     11 C11        30.7234   25.8548    4.9515 C.ar      12 UNK        -0.0804 
     12 C12        30.5476   24.5483    5.4189 C.ar      12 UNK        -0.0824 
     13 C13        30.6501   23.4601    4.5446 C.ar      12 UNK        -0.0762 
     14 C14        30.9756   23.6790    3.2030 C.ar      12 UNK        -0.0782 
     15 C15        30.3329   22.0516    5.0225 C.3       12 UNK         0.0230 
     16 S16        28.7714   21.4473    4.2946 S.3       12 UNK        -0.2608 
     17 C17        27.5632   22.6507    4.9488 C.3       12 UNK        -0.0989 
     18 CA         27.2739   23.8204    3.9691 C.3       5 UNK         0.0716 
     19 N          26.7116   23.3605    2.6946 N.am      5 UNK        -0.4135 
     20 C          26.4583   24.1375    1.6318 C.2       4 UNK         0.5031 
     21 O          26.6966   25.3478    1.5893 O.2       4 UNK        -0.5229 
     22 CA         25.8264   23.4500    0.4133 C.3       4 UNK         0.0329 
     23 CB         24.4482   22.8452    0.7454 C.3       4 UNK        -0.2001 
     24 N          25.6794   24.4445   -0.6435 N.am      4 UNK        -0.4303 
     25 C          25.6610   24.2276   -1.9591 C.2       3 UNK         0.5044 
     26 O          25.7357   23.1055   -2.4619 O.2       3 UNK        -0.5152 
     27 CA         25.5516   25.4545   -2.8881 C.3       3 UNK         0.0319 
     28 CB         24.0896   25.6892   -3.3159 C.3       3 UNK        -0.2001 
     29 N          26.1660   26.6959   -2.3866 N.am      3 UNK        -0.4354 
     30 C          25.8162   27.4722   -1.3501 C.2       2 UNK         0.4964 
     31 O          24.8714   27.2213   -0.6006 O.2       2 UNK        -0.5047 
     32 CA         26.6811   28.7288   -1.1066 C.3       2 UNK         0.0288 
     33 CB         26.2058   29.5467    0.1098 C.3       2 UNK        -0.2113 
     34 N          28.1036   28.4172   -0.9316 N.am      2 UNK        -0.4145 
     35 C          28.9542   28.0673   -1.9054 C.2       1 UNK         0.5006 
     36 O          28.6263   27.9602   -3.0915 O.2       1 UNK        -0.5103 
     37 C          26.3671   24.8815    4.6253 C.2       5 UNK         0.5055 
     38 O          25.3685   24.5268    5.2561 O.2       5 UNK        -0.5220 
     39 N          26.7190   26.1568    4.4338 N.am      6 UNK        -0.4450 
     40 CA         25.9584   27.3182    4.8837 C.3       6 UNK         0.0367 
     41 CB         24.7585   27.5807    3.9524 C.3       6 UNK        -0.1929 
     42 C          26.8737   28.5413    4.9728 C.2       6 UNK         0.5070 
     43 O          26.9287   29.1728    6.0281 O.2       6 UNK        -0.5237 
     44 N          27.5957   28.8420    3.8853 N.am      7 UNK        -0.4739 
     45 CA         28.5366   29.9564    3.8020 C.3       7 UNK         0.0276 
     46 CB         27.7759   31.2788    3.5857 C.3       7 UNK        -0.1927 
     47 C          29.5261   29.7162    2.6583 C.2       7 UNK         0.5013 
     48 O          29.1655   29.0838    1.6620 O.2       7 UNK        -0.5193 
     49 N          30.7348   30.2616    2.8213 N.am      8 UNK        -0.4253 
     50 CA         31.8452   30.2822    1.8748 C.3       8 UNK         0.0242 
     51 CB         32.3946   28.8647    1.6242 C.3       8 UNK        -0.2000 
     52 C          32.9568   31.1267    2.4995 C.2       8 UNK         0.4948 
     53 O          33.0185   31.2401    3.7274 O.2       8 UNK        -0.5275 
     54 N          33.8884   31.6058    1.6658 N.am      9 UNK        -0.4246 
     55 CA         35.1439   32.2272    2.1116 C.3       9 UNK         0.0261 
     56 CB         35.8847   32.8065    0.8954 C.3       9 UNK        -0.1959 
     57 C          36.0586   31.2590    2.8926 C.2       9 UNK         0.5033 
     58 O          36.8787   31.7096    3.6928 O.2       9 UNK        -0.5390 
     59 N          35.8845   29.9508    2.6568 N.am      10 UNK        -0.4215 
     60 CA         36.5634   28.8577    3.3496 C.3       10 UNK         0.0240 
     61 CB         36.3767   27.5656    2.5358 C.3       10 UNK        -0.1982 
     62 C          36.0972   28.6403    4.8023 C.2       10 UNK         0.4970 
     63 O          36.8554   28.0394    5.5652 O.2       10 UNK        -0.4916 
     64 N          34.8869   29.0958    5.1612 N.am      11 UNK        -0.4279 
     65 CA         34.3050   28.9289    6.5050 C.3       11 UNK         0.1003 
     66 C          33.9281   30.2662    7.2025 C.2       11 UNK         0.5709 
     67 N          33.7220   31.3645    6.4856 N.am      11 UNK        -0.7358 
     68 O          33.8498   30.3141    8.4281 O.2       11 UNK        -0.4999 
     69 C69        33.1462   27.8931    6.5153 C.3       12 UNK        -0.0954 
     70 S70        31.6573   28.4323    5.6120 S.3       12 UNK        -0.2268 
     71 C71        30.5218   27.0338    5.9014 C.3       12 UNK         0.0203 
     72 H72        32.1692   30.6377   -4.3888 H         1 UNK         0.0888 
     73 H73        33.5582   30.3530   -3.3361 H         1 UNK         0.0888 
     74 H74        32.9182   29.0409   -4.3276 H         1 UNK         0.0888 
     75 H75        31.6646   27.5947   -3.1667 H         1 UNK         0.3017 
     76 H76        30.5926   28.2731   -0.5533 H         1 UNK         0.0873 
     77 H77        30.1599   25.6353   -2.0564 H         1 UNK         0.0745 
     78 H78        31.6746   25.9870   -1.2790 H         1 UNK         0.0745 
     79 H79        31.8829   24.3223    0.7983 H         1 UNK         0.0705 
     80 H80        32.2004   25.9993    1.1507 H         1 UNK         0.0705 
     81 H81        31.0988   27.0633    3.2192 H         1 UNK         0.1334 
     82 H82        30.2887   24.3805    6.4556 H         1 UNK         0.1417 
     83 H83        31.0461   22.8387    2.5256 H         1 UNK         0.1562 
     84 H84        30.2671   22.0101    6.1109 H         1 UNK         0.0748 
     85 H85        31.1439   21.3802    4.7366 H         1 UNK         0.0748 
     86 H86        27.9294   23.0307    5.9046 H         1 UNK         0.0940 
     87 H87        26.6425   22.1109    5.1790 H         1 UNK         0.0940 
     88 H88        28.2194   24.3063    3.7285 H         1 UNK         0.0703 
     89 H89        26.4885   22.3778    2.6453 H         1 UNK         0.3081 
     90 H90        26.5071   22.6644    0.0789 H         1 UNK         0.0719 
     91 H91        23.7592   23.6030    1.1210 H         1 UNK         0.0809 
     92 H92        23.9933   22.3888   -0.1340 H         1 UNK         0.0809 
     93 H93        24.5248   22.0661    1.5043 H         1 UNK         0.0809 
     94 H94        25.6326   25.4046   -0.3103 H         1 UNK         0.2990 
     95 H95        26.1156   25.2021   -3.7875 H         1 UNK         0.0690 
     96 H96        24.0122   26.5041   -4.0355 H         1 UNK         0.0788 
     97 H97        23.4495   25.9287   -2.4661 H         1 UNK         0.0788 
     98 H98        23.6757   24.7981   -3.7897 H         1 UNK         0.0788 
     99 H99        26.9950   26.9961   -2.8943 H         1 UNK         0.2993 
    100 H100       26.5754   29.3607   -1.9910 H         1 UNK         0.0949 
    101 H101       26.2885   28.9739    1.0342 H         1 UNK         0.0767 
    102 H102       26.7936   30.4572    0.2282 H         1 UNK         0.0767 
    103 H103       25.1626   29.8461    0.0007 H         1 UNK         0.0767 
    104 H104       28.4613   28.4844    0.0204 H         1 UNK         0.3013 
    105 H105       27.5456   26.3489    3.8842 H         1 UNK         0.3121 
    106 H106       25.5807   27.1207    5.8895 H         1 UNK         0.0774 
    107 H107       24.2314   28.4916    4.2391 H         1 UNK         0.0815 
    108 H108       24.0381   26.7638    3.9949 H         1 UNK         0.0815 
    109 H109       25.0694   27.6927    2.9128 H         1 UNK         0.0815 
    110 H110       27.5195   28.2917    3.0388 H         1 UNK         0.2987 
    111 H111       29.0991   30.0116    4.7370 H         1 UNK         0.0949 
    112 H112       27.1120   31.5004    4.4212 H         1 UNK         0.0806 
    113 H113       28.4657   32.1187    3.4930 H         1 UNK         0.0806 
    114 H114       27.1724   31.2496    2.6778 H         1 UNK         0.0806 
    115 H115       30.9544   30.7428    3.6862 H         1 UNK         0.3010 
    116 H116       31.5057   30.7357    0.9415 H         1 UNK         0.0829 
    117 H117       33.1255   28.8617    0.8151 H         1 UNK         0.0813 
    118 H118       32.8794   28.4542    2.5113 H         1 UNK         0.0813 
    119 H119       31.6054   28.1771    1.3404 H         1 UNK         0.0813 
    120 H120       33.7691   31.4793    0.6701 H         1 UNK         0.3038 
    121 H121       34.8908   33.0494    2.7845 H         1 UNK         0.0769 
    122 H122       36.1510   32.0313    0.1758 H         1 UNK         0.0811 
    123 H123       36.8094   33.2986    1.2008 H         1 UNK         0.0811 
    124 H124       35.2794   33.5520    0.3794 H         1 UNK         0.0811 
    125 H125       35.2075   29.6877    1.9575 H         1 UNK         0.3204 
    126 H126       37.6299   29.0908    3.3819 H         1 UNK         0.0748 
    127 H127       36.9059   26.7319    2.9998 H         1 UNK         0.0771 
    128 H128       35.3260   27.2815    2.4613 H         1 UNK         0.0771 
    129 H129       36.7701   27.6715    1.5245 H         1 UNK         0.0771 
    130 H130       34.3250   29.6164    4.5014 H         1 UNK         0.2980 
    131 H131       35.0709   28.5118    7.1611 H         1 UNK         0.0545 
    132 H132       33.6562   31.3288    5.4728 H         1 UNK         0.3459 
    133 H133       33.4956   32.2203    6.9655 H         1 UNK         0.3459 
    134 H134       32.8601   27.6658    7.5437 H         1 UNK         0.0616 
    135 H135       33.4872   26.9507    6.0839 H         1 UNK         0.0616 
    136 H136       30.6119   26.7143    6.9406 H         1 UNK         0.0634 
    137 H137       29.5009   27.3944    5.7805 H         1 UNK         0.0634 
@<TRIPOS>BOND
     1    1    2 1    
     2    1   72 1    
     3    1   73 1    
     4    1   74 1    
     5    2    3 2    
     6    2    4 am   BACKBONE|DICT|INTERRES
     7    4    5 1    
     8    4   75 1    
     9    5    6 1    
    10    5   35 1    
    11    5   76 1    
    12    6    7 1    
    13    6   77 1    
    14    6   78 1    
    15    7    8 1    
    16    8    9 1    
    17    8   79 1    
    18    8   80 1    
    19    9   10 ar   
    20    9   14 ar   
    21   10   11 ar   
    22   10   81 1    
    23   11   12 ar   
    24   11   71 1    
    25   12   13 ar   
    26   12   82 1    
    27   13   14 ar   
    28   13   15 1    
    29   14   83 1    
    30   15   16 1    
    31   15   84 1    
    32   15   85 1    
    33   16   17 1    
    34   17   18 1    
    35   17   86 1    
    36   17   87 1    
    37   18   19 1    
    38   18   37 1    
    39   18   88 1    
    40   19   20 am   BACKBONE|DICT|INTERRES
    41   19   89 1    
    42   20   21 2    
    43   20   22 1    
    44   22   23 1    
    45   22   24 1    
    46   22   90 1    
    47   23   91 1    
    48   23   92 1    
    49   23   93 1    
    50   24   25 am   BACKBONE|DICT|INTERRES
    51   24   94 1    
    52   25   26 2    
    53   25   27 1    
    54   27   28 1    
    55   27   29 1    
    56   27   95 1    
    57   28   96 1    
    58   28   97 1    
    59   28   98 1    
    60   29   30 am   BACKBONE|DICT|INTERRES
    61   29   99 1    
    62   30   31 2    
    63   30   32 1    
    64   32   33 1    
    65   32   34 1    
    66   32  100 1    
    67   33  101 1    
    68   33  102 1    
    69   33  103 1    
    70   34   35 am   BACKBONE|DICT|INTERRES
    71   34  104 1    
    72   35   36 2    
    73   37   38 2    
    74   37   39 am   BACKBONE|DICT|INTERRES
    75   39   40 1    
    76   39  105 1    
    77   40   41 1    
    78   40   42 1    
    79   40  106 1    
    80   41  107 1    
    81   41  108 1    
    82   41  109 1    
    83   42   43 2    
    84   42   44 am   BACKBONE|DICT|INTERRES
    85   44   45 1    
    86   44  110 1    
    87   45   46 1    
    88   45   47 1    
    89   45  111 1    
    90   46  112 1    
    91   46  113 1    
    92   46  114 1    
    93   47   48 2    
    94   47   49 am   BACKBONE|DICT|INTERRES
    95   49   50 1    
    96   49  115 1    
    97   50   51 1    
    98   50   52 1    
    99   50  116 1    
   100   51  117 1    
   101   51  118 1    
   102   51  119 1    
   103   52   53 2    
   104   52   54 am   BACKBONE|DICT|INTERRES
   105   54   55 1    
   106   54  120 1    
   107   55   56 1    
   108   55   57 1    
   109   55  121 1    
   110   56  122 1    
   111   56  123 1    
   112   56  124 1    
   113   57   58 2    
   114   57   59 am   BACKBONE|DICT|INTERRES
   115   59   60 1    
   116   59  125 1    
   117   60   61 1    
   118   60   62 1    
   119   60  126 1    
   120   61  127 1    
   121   61  128 1    
   122   61  129 1    
   123   62   63 2    
   124   62   64 am   BACKBONE|DICT|INTERRES
   125   64   65 1    
   126   64  130 1    
   127   65   66 1    
   128   65   69 1    
   129   65  131 1    
   130   66   67 am   BACKBONE|DICT|INTERRES
   131   66   68 2    
   132   67  132 1    
   133   67  133 1    
   134   69   70 1    
   135   69  134 1    
   136   69  135 1    
   137   70   71 1    
   138   71  136 1    
   139   71  137 1    
@<TRIPOS>SUBSTRUCTURE
     1 UNK         1 GROUP             0       ****    0 ROOT    
