@<TRIPOS>MOLECULE
3R136
137   139    1
SMALL
USER_CHARGES


@<TRIPOS>ATOM
      1 CA         24.5275   20.5733    2.5013 C.3       0 UNK        -0.1979 
      2 C          25.2977   21.4818    1.5557 C.2       0 UNK         0.4864 
      3 O          24.6867   22.1955    0.7597 O.2       0 UNK        -0.5359 
      4 N          26.6355   21.4778    1.6468 N.am      1 UNK        -0.4318 
      5 CA         27.5550   22.2671    0.8130 C.3       1 UNK         0.0824 
      6 C6         29.0393   21.9228    1.0903 C.3       12 UNK        -0.0944 
      7 S7         29.5133   22.0544    2.8502 S.3       12 UNK        -0.2672 
      8 C8         31.3271   22.1002    2.7274 C.3       12 UNK         0.0333 
      9 C9         31.8467   23.5149    2.5170 C.ar      12 UNK        -0.0807 
     10 C10        32.0769   24.3417    3.6201 C.ar      12 UNK        -0.0894 
     11 C11        32.6002   25.6266    3.4507 C.ar      12 UNK        -0.0804 
     12 C12        32.8809   26.0897    2.1616 C.ar      12 UNK        -0.0824 
     13 C13        32.6515   25.2732    1.0489 C.ar      12 UNK        -0.0762 
     14 C14        32.1339   23.9867    1.2326 C.ar      12 UNK        -0.0782 
     15 C15        32.9966   25.7680   -0.3492 C.3       12 UNK         0.0230 
     16 S16        31.9301   27.1426   -0.8810 S.3       12 UNK        -0.2608 
     17 C17        30.2973   26.3315   -0.9514 C.3       12 UNK        -0.0989 
     18 CA         29.2295   27.2107   -1.6499 C.3       5 UNK         0.0716 
     19 N          28.0601   26.4134   -2.0090 N.am      5 UNK        -0.4135 
     20 C          27.2028   26.7016   -2.9948 C.2       4 UNK         0.5031 
     21 O          27.3283   27.6633   -3.7545 O.2       4 UNK        -0.5229 
     22 CA         26.0084   25.7541   -3.1703 C.3       4 UNK         0.0329 
     23 CB         26.4681   24.3975   -3.7321 C.3       4 UNK        -0.2001 
     24 N          25.3089   25.5392   -1.9024 N.am      4 UNK        -0.4303 
     25 C          24.0759   25.9842   -1.6186 C.2       3 UNK         0.5044 
     26 O          23.3907   26.6481   -2.3977 O.2       3 UNK        -0.5152 
     27 CA         23.4836   25.6158   -0.2440 C.3       3 UNK         0.0319 
     28 CB         22.4973   24.4451   -0.3839 C.3       3 UNK        -0.2001 
     29 N          24.5110   25.2697    0.7413 N.am      3 UNK        -0.4354 
     30 C          25.2545   26.1801    1.3900 C.2       2 UNK         0.4964 
     31 O          25.0365   27.3902    1.3297 O.2       2 UNK        -0.5047 
     32 CA         26.4356   25.6817    2.2490 C.3       2 UNK         0.0288 
     33 CB         26.1330   25.8654    3.7455 C.3       2 UNK        -0.2113 
     34 N          26.8227   24.2876    2.0160 N.am      2 UNK        -0.4145 
     35 C          27.3068   23.7889    0.8694 C.2       1 UNK         0.5006 
     36 O          27.4989   24.4654   -0.1416 O.2       1 UNK        -0.5103 
     37 C          28.7974   28.3809   -0.7486 C.2       5 UNK         0.5055 
     38 O          27.8958   28.2206    0.0775 O.2       5 UNK        -0.5220 
     39 N          29.4990   29.5155   -0.8612 N.am      6 UNK        -0.4450 
     40 CA         29.3712   30.6756    0.0237 C.3       6 UNK         0.0367 
     41 CB         29.9112   31.9225   -0.7010 C.3       6 UNK        -0.1929 
     42 C          30.0792   30.4228    1.3699 C.2       6 UNK         0.5070 
     43 O          31.0155   31.1398    1.7249 O.2       6 UNK        -0.5237 
     44 N          29.6221   29.3952    2.0991 N.am      7 UNK        -0.4739 
     45 CA         30.1999   28.9081    3.3579 C.3       7 UNK         0.0276 
     46 CB         29.4442   27.6491    3.8093 C.3       7 UNK        -0.1927 
     47 C          30.2475   29.9553    4.4856 C.2       7 UNK         0.5013 
     48 O          31.1261   29.8808    5.3467 O.2       7 UNK        -0.5193 
     49 N          29.3513   30.9509    4.4147 N.am      8 UNK        -0.4253 
     50 CA         29.3057   32.1455    5.2638 C.3       8 UNK         0.0242 
     51 CB         28.0728   32.9808    4.8814 C.3       8 UNK        -0.2000 
     52 C          30.5795   33.0153    5.2195 C.2       8 UNK         0.4948 
     53 O          30.7790   33.8189    6.1309 O.2       8 UNK        -0.5275 
     54 N          31.4349   32.8274    4.2010 N.am      9 UNK        -0.4246 
     55 CA         32.7750   33.4152    4.1123 C.3       9 UNK         0.0261 
     56 CB         33.3142   33.2243    2.6848 C.3       9 UNK        -0.1959 
     57 C          33.7777   32.8567    5.1459 C.2       9 UNK         0.5033 
     58 O          34.8460   33.4509    5.2961 O.2       9 UNK        -0.5390 
     59 N          33.4243   31.7547    5.8312 N.am      10 UNK        -0.4215 
     60 CA         34.1834   31.0501    6.8699 C.3       10 UNK         0.0240 
     61 CB         34.4917   31.9651    8.0751 C.3       10 UNK        -0.1982 
     62 C          35.4364   30.3727    6.2926 C.2       10 UNK         0.4970 
     63 O          36.5395   30.9163    6.3782 O.2       10 UNK        -0.4916 
     64 N          35.2221   29.1932    5.6993 N.am      11 UNK        -0.4279 
     65 CA         36.2598   28.2983    5.1661 C.3       11 UNK         0.1003 
     66 C          37.3040   27.8321    6.2238 C.2       11 UNK         0.5709 
     67 N          38.5112   27.4930    5.7909 N.am      11 UNK        -0.7358 
     68 O          37.0255   27.7451    7.4190 O.2       11 UNK        -0.4999 
     69 C69        35.6263   27.0977    4.4103 C.3       12 UNK        -0.0954 
     70 S70        34.4712   26.1094    5.4289 S.3       12 UNK        -0.2268 
     71 C71        32.8660   26.4995    4.6681 C.3       12 UNK         0.0203 
     72 H72        25.1913   20.0116    3.1584 H         1 UNK         0.0888 
     73 H73        23.8540   21.1634    3.1221 H         1 UNK         0.0888 
     74 H74        23.9307   19.8612    1.9321 H         1 UNK         0.0888 
     75 H75        27.0835   20.8873    2.3339 H         1 UNK         0.3017 
     76 H76        27.3475   21.9772   -0.2194 H         1 UNK         0.0873 
     77 H77        29.2387   20.8990    0.7699 H         1 UNK         0.0745 
     78 H78        29.6944   22.5516    0.4850 H         1 UNK         0.0745 
     79 H79        31.6632   21.4401    1.9261 H         1 UNK         0.0705 
     80 H80        31.7476   21.6923    3.6479 H         1 UNK         0.0705 
     81 H81        31.8633   23.9779    4.6161 H         1 UNK         0.1334 
     82 H82        33.2839   27.0828    2.0187 H         1 UNK         0.1417 
     83 H83        31.9695   23.3464    0.3769 H         1 UNK         0.1562 
     84 H84        32.9309   24.9602   -1.0798 H         1 UNK         0.0748 
     85 H85        34.0342   26.1045   -0.3606 H         1 UNK         0.0748 
     86 H86        29.9838   26.0522    0.0575 H         1 UNK         0.0940 
     87 H87        30.4176   25.3946   -1.4981 H         1 UNK         0.0940 
     88 H88        29.6585   27.6145   -2.5699 H         1 UNK         0.0703 
     89 H89        27.8494   25.6421   -1.3775 H         1 UNK         0.3081 
     90 H90        25.3379   26.2062   -3.9043 H         1 UNK         0.0719 
     91 H91        27.0108   24.5263   -4.6696 H         1 UNK         0.0809 
     92 H92        27.1279   23.8708   -3.0412 H         1 UNK         0.0809 
     93 H93        25.6167   23.7487   -3.9380 H         1 UNK         0.0809 
     94 H94        25.8216   25.0443   -1.1819 H         1 UNK         0.2990 
     95 H95        22.9254   26.4817    0.1186 H         1 UNK         0.0690 
     96 H96        22.0629   24.1727    0.5781 H         1 UNK         0.0788 
     97 H97        22.9790   23.5585   -0.7981 H         1 UNK         0.0788 
     98 H98        21.6739   24.7074   -1.0496 H         1 UNK         0.0788 
     99 H99        24.7140   24.2814    0.8551 H         1 UNK         0.2993 
    100 H100       27.2932   26.3058    1.9899 H         1 UNK         0.0949 
    101 H101       26.9942   25.6019    4.3602 H         1 UNK         0.0767 
    102 H102       25.8830   26.9034    3.9699 H         1 UNK         0.0767 
    103 H103       25.2902   25.2507    4.0641 H         1 UNK         0.0767 
    104 H104       26.6950   23.6476    2.7864 H         1 UNK         0.3013 
    105 H105       30.2670   29.5385   -1.5174 H         1 UNK         0.3121 
    106 H106       28.3136   30.8453    0.2372 H         1 UNK         0.0774 
    107 H107       30.9695   31.8222   -0.9457 H         1 UNK         0.0815 
    108 H108       29.3679   32.1102   -1.6272 H         1 UNK         0.0815 
    109 H109       29.8043   32.8120   -0.0785 H         1 UNK         0.0815 
    110 H110       28.8604   28.8543    1.6993 H         1 UNK         0.2987 
    111 H111       31.2320   28.6311    3.1401 H         1 UNK         0.0949 
    112 H112       29.5384   26.8469    3.0766 H         1 UNK         0.0806 
    113 H113       29.8387   27.2694    4.7525 H         1 UNK         0.0806 
    114 H114       28.3832   27.8508    3.9585 H         1 UNK         0.0806 
    115 H115       28.6835   30.9124    3.6585 H         1 UNK         0.3010 
    116 H116       29.1872   31.8067    6.2950 H         1 UNK         0.0829 
    117 H117       27.1520   32.4091    4.9991 H         1 UNK         0.0813 
    118 H118       27.9857   33.8633    5.5172 H         1 UNK         0.0813 
    119 H119       28.1252   33.3279    3.8486 H         1 UNK         0.0813 
    120 H120       31.1875   32.1718    3.4648 H         1 UNK         0.3038 
    121 H121       32.6824   34.4869    4.3002 H         1 UNK         0.0769 
    122 H122       34.2790   33.7180    2.5609 H         1 UNK         0.0811 
    123 H123       32.6364   33.6471    1.9428 H         1 UNK         0.0811 
    124 H124       33.4552   32.1693    2.4463 H         1 UNK         0.0811 
    125 H125       32.5383   31.3189    5.5915 H         1 UNK         0.3204 
    126 H126       33.5271   30.2586    7.2365 H         1 UNK         0.0748 
    127 H127       34.9685   31.3992    8.8763 H         1 UNK         0.0771 
    128 H128       35.1656   32.7815    7.8146 H         1 UNK         0.0771 
    129 H129       33.5800   32.4016    8.4831 H         1 UNK         0.0771 
    130 H130       34.2875   28.8146    5.7013 H         1 UNK         0.2980 
    131 H131       36.8105   28.8883    4.4310 H         1 UNK         0.0545 
    132 H132       39.1985   27.1770    6.4572 H         1 UNK         0.3459 
    133 H133       38.7509   27.5487    4.8132 H         1 UNK         0.3459 
    134 H134       35.1059   27.4657    3.5261 H         1 UNK         0.0616 
    135 H135       36.4008   26.4303    4.0286 H         1 UNK         0.0616 
    136 H136       32.0817   26.3404    5.4094 H         1 UNK         0.0634 
    137 H137       32.8299   27.5578    4.4100 H         1 UNK         0.0634 
@<TRIPOS>BOND
     1    1    2 1    
     2    1   72 1    
     3    1   73 1    
     4    1   74 1    
     5    2    3 2    
     6    2    4 am   BACKBONE|DICT|INTERRES
     7    4    5 1    
     8    4   75 1    
     9    5    6 1    
    10    5   35 1    
    11    5   76 1    
    12    6    7 1    
    13    6   77 1    
    14    6   78 1    
    15    7    8 1    
    16    8    9 1    
    17    8   79 1    
    18    8   80 1    
    19    9   10 ar   
    20    9   14 ar   
    21   10   11 ar   
    22   10   81 1    
    23   11   12 ar   
    24   11   71 1    
    25   12   13 ar   
    26   12   82 1    
    27   13   14 ar   
    28   13   15 1    
    29   14   83 1    
    30   15   16 1    
    31   15   84 1    
    32   15   85 1    
    33   16   17 1    
    34   17   18 1    
    35   17   86 1    
    36   17   87 1    
    37   18   19 1    
    38   18   37 1    
    39   18   88 1    
    40   19   20 am   BACKBONE|DICT|INTERRES
    41   19   89 1    
    42   20   21 2    
    43   20   22 1    
    44   22   23 1    
    45   22   24 1    
    46   22   90 1    
    47   23   91 1    
    48   23   92 1    
    49   23   93 1    
    50   24   25 am   BACKBONE|DICT|INTERRES
    51   24   94 1    
    52   25   26 2    
    53   25   27 1    
    54   27   28 1    
    55   27   29 1    
    56   27   95 1    
    57   28   96 1    
    58   28   97 1    
    59   28   98 1    
    60   29   30 am   BACKBONE|DICT|INTERRES
    61   29   99 1    
    62   30   31 2    
    63   30   32 1    
    64   32   33 1    
    65   32   34 1    
    66   32  100 1    
    67   33  101 1    
    68   33  102 1    
    69   33  103 1    
    70   34   35 am   BACKBONE|DICT|INTERRES
    71   34  104 1    
    72   35   36 2    
    73   37   38 2    
    74   37   39 am   BACKBONE|DICT|INTERRES
    75   39   40 1    
    76   39  105 1    
    77   40   41 1    
    78   40   42 1    
    79   40  106 1    
    80   41  107 1    
    81   41  108 1    
    82   41  109 1    
    83   42   43 2    
    84   42   44 am   BACKBONE|DICT|INTERRES
    85   44   45 1    
    86   44  110 1    
    87   45   46 1    
    88   45   47 1    
    89   45  111 1    
    90   46  112 1    
    91   46  113 1    
    92   46  114 1    
    93   47   48 2    
    94   47   49 am   BACKBONE|DICT|INTERRES
    95   49   50 1    
    96   49  115 1    
    97   50   51 1    
    98   50   52 1    
    99   50  116 1    
   100   51  117 1    
   101   51  118 1    
   102   51  119 1    
   103   52   53 2    
   104   52   54 am   BACKBONE|DICT|INTERRES
   105   54   55 1    
   106   54  120 1    
   107   55   56 1    
   108   55   57 1    
   109   55  121 1    
   110   56  122 1    
   111   56  123 1    
   112   56  124 1    
   113   57   58 2    
   114   57   59 am   BACKBONE|DICT|INTERRES
   115   59   60 1    
   116   59  125 1    
   117   60   61 1    
   118   60   62 1    
   119   60  126 1    
   120   61  127 1    
   121   61  128 1    
   122   61  129 1    
   123   62   63 2    
   124   62   64 am   BACKBONE|DICT|INTERRES
   125   64   65 1    
   126   64  130 1    
   127   65   66 1    
   128   65   69 1    
   129   65  131 1    
   130   66   67 am   BACKBONE|DICT|INTERRES
   131   66   68 2    
   132   67  132 1    
   133   67  133 1    
   134   69   70 1    
   135   69  134 1    
   136   69  135 1    
   137   70   71 1    
   138   71  136 1    
   139   71  137 1    
@<TRIPOS>SUBSTRUCTURE
     1 UNK         1 GROUP             0       ****    0 ROOT    
