@<TRIPOS>MOLECULE
3R136
137   139    1
SMALL
USER_CHARGES


@<TRIPOS>ATOM
      1 CA         31.3512   18.9100    0.1618 C.3       0 UNK        -0.1979 
      2 C          30.6404   20.1253   -0.4153 C.2       0 UNK         0.4864 
      3 O          30.6463   20.3153   -1.6322 O.2       0 UNK        -0.5359 
      4 N          30.0321   20.9485    0.4497 N.am      1 UNK        -0.4318 
      5 CA         29.3044   22.1720    0.0830 C.3       1 UNK         0.0824 
      6 C6         29.0115   23.0602    1.3181 C.3       12 UNK        -0.0944 
      7 S7         30.5251   23.5367    2.2244 S.3       12 UNK        -0.2672 
      8 C8         30.6719   25.3069    1.8102 C.3       12 UNK         0.0333 
      9 C9         30.0362   26.2304    2.8471 C.ar      12 UNK        -0.0807 
     10 C10        30.7703   27.3087    3.3522 C.ar      12 UNK        -0.0894 
     11 C11        30.1959   28.1984    4.2647 C.ar      12 UNK        -0.0804 
     12 C12        28.8659   28.0199    4.6549 C.ar      12 UNK        -0.0824 
     13 C13        28.1169   26.9473    4.1616 C.ar      12 UNK        -0.0762 
     14 C14        28.7157   26.0462    3.2746 C.ar      12 UNK        -0.0782 
     15 C15        26.6659   26.7644    4.6004 C.3       12 UNK         0.0230 
     16 S16        25.4903   26.6219    3.2083 S.3       12 UNK        -0.2608 
     17 C17        25.8233   28.1428    2.2586 C.3       12 UNK        -0.0989 
     18 CA         26.7012   27.8626    1.0078 C.3       5 UNK         0.0716 
     19 N          25.9472   27.3272   -0.1234 N.am      5 UNK        -0.4135 
     20 C          25.8389   26.0315   -0.4325 C.2       4 UNK         0.5031 
     21 O          26.2786   25.1157    0.2645 O.2       4 UNK        -0.5229 
     22 CA         25.1829   25.7141   -1.7848 C.3       4 UNK         0.0329 
     23 CB         26.2149   25.8282   -2.9197 C.3       4 UNK        -0.2001 
     24 N          24.6248   24.3621   -1.7930 N.am      4 UNK        -0.4303 
     25 C          23.4082   24.0410   -1.3336 C.2       3 UNK         0.5044 
     26 O          22.6059   24.8671   -0.8952 O.2       3 UNK        -0.5152 
     27 CA         22.9881   22.5595   -1.3966 C.3       3 UNK         0.0319 
     28 CB         21.9968   22.3332   -2.5506 C.3       3 UNK        -0.2001 
     29 N          24.1124   21.6321   -1.5512 N.am      3 UNK        -0.4354 
     30 C          24.9326   21.2578   -0.5606 C.2       2 UNK         0.4964 
     31 O          24.8097   21.6362    0.6057 O.2       2 UNK        -0.5047 
     32 CA         26.0704   20.2770   -0.9105 C.3       2 UNK         0.0288 
     33 CB         26.1874   19.9321   -2.4146 C.3       2 UNK        -0.2113 
     34 N          27.3558   20.7411   -0.3777 N.am      2 UNK        -0.4145 
     35 C          27.9977   21.8798   -0.6886 C.2       1 UNK         0.5006 
     36 O          27.6101   22.6767   -1.5456 O.2       1 UNK        -0.5103 
     37 C          27.4319   29.1271    0.5387 C.2       5 UNK         0.5055 
     38 O          27.0256   29.7488   -0.4479 O.2       5 UNK        -0.5220 
     39 N          28.4948   29.4727    1.2691 N.am      6 UNK        -0.4450 
     40 CA         29.3275   30.6555    1.0702 C.3       6 UNK         0.0367 
     41 CB         30.7285   30.1923    0.6292 C.3       6 UNK        -0.1929 
     42 C          29.3379   31.4822    2.3687 C.2       6 UNK         0.5070 
     43 O          28.4131   31.3596    3.1757 O.2       6 UNK        -0.5237 
     44 N          30.3697   32.3104    2.5608 N.am      7 UNK        -0.4739 
     45 CA         30.5584   33.1573    3.7367 C.3       7 UNK         0.0276 
     46 CB         29.7895   34.4791    3.5471 C.3       7 UNK        -0.1927 
     47 C          32.0547   33.4177    3.9505 C.2       7 UNK         0.5013 
     48 O          32.8534   33.1931    3.0356 O.2       7 UNK        -0.5193 
     49 N          32.3905   33.9225    5.1461 N.am      8 UNK        -0.4253 
     50 CA         33.7198   34.3690    5.5772 C.3       8 UNK         0.0242 
     51 CB         34.1007   35.6810    4.8510 C.3       8 UNK        -0.2000 
     52 C          34.7791   33.2541    5.4722 C.2       8 UNK         0.4948 
     53 O          34.5483   32.1551    5.9816 O.2       8 UNK        -0.5275 
     54 N          35.9107   33.5410    4.8131 N.am      9 UNK        -0.4246 
     55 CA         37.0829   32.6692    4.6605 C.3       9 UNK         0.0261 
     56 CB         38.1720   33.4340    3.8895 C.3       9 UNK        -0.1959 
     57 C          36.8200   31.3003    4.0021 C.2       9 UNK         0.5033 
     58 O          37.6716   30.4167    4.1103 O.2       9 UNK        -0.5390 
     59 N          35.6586   31.1309    3.3549 N.am      10 UNK        -0.4215 
     60 CA         35.1884   29.8572    2.8106 C.3       10 UNK         0.0240 
     61 CB         33.9906   30.1178    1.8870 C.3       10 UNK        -0.1982 
     62 C          34.8303   28.8105    3.8852 C.2       10 UNK         0.4970 
     63 O          34.7975   27.6250    3.5525 O.2       10 UNK        -0.4916 
     64 N          34.5754   29.2368    5.1314 N.am      11 UNK        -0.4279 
     65 CA         34.3095   28.3373    6.2666 C.3       11 UNK         0.1003 
     66 C          34.7778   28.8670    7.6508 C.2       11 UNK         0.5709 
     67 N          35.1119   30.1406    7.8163 N.am      11 UNK        -0.7358 
     68 O          34.8729   28.0899    8.5983 O.2       11 UNK        -0.4999 
     69 C69        32.8538   27.7953    6.2839 C.3       12 UNK        -0.0954 
     70 S70        31.5802   29.0842    6.5131 S.3       12 UNK        -0.2268 
     71 C71        31.0012   29.3682    4.8127 C.3       12 UNK         0.0203 
     72 H72        31.2725   18.8688    1.2481 H         1 UNK         0.0888 
     73 H73        32.4086   18.9347   -0.1002 H         1 UNK         0.0888 
     74 H74        30.9203   17.9953   -0.2444 H         1 UNK         0.0888 
     75 H75        30.0920   20.7602    1.4405 H         1 UNK         0.3017 
     76 H76        29.9454   22.7419   -0.5935 H         1 UNK         0.0873 
     77 H77        28.4812   23.9611    1.0086 H         1 UNK         0.0745 
     78 H78        28.3467   22.5455    2.0145 H         1 UNK         0.0745 
     79 H79        31.7353   25.5310    1.7124 H         1 UNK         0.0705 
     80 H80        30.2340   25.5049    0.8310 H         1 UNK         0.0705 
     81 H81        31.7937   27.4586    3.0346 H         1 UNK         0.1334 
     82 H82        28.4190   28.7184    5.3497 H         1 UNK         0.1417 
     83 H83        28.1325   25.2198    2.8937 H         1 UNK         0.1562 
     84 H84        26.3473   27.5908    5.2377 H         1 UNK         0.0748 
     85 H85        26.5957   25.8633    5.2110 H         1 UNK         0.0748 
     86 H86        26.2938   28.8642    2.9305 H         1 UNK         0.0940 
     87 H87        24.8726   28.5923    1.9666 H         1 UNK         0.0940 
     88 H88        27.4856   27.1495    1.2577 H         1 UNK         0.0703 
     89 H89        25.6358   28.0311   -0.7805 H         1 UNK         0.3081 
     90 H90        24.3838   26.4363   -1.9672 H         1 UNK         0.0719 
     91 H91        27.0466   25.1364   -2.7782 H         1 UNK         0.0809 
     92 H92        25.7638   25.6158   -3.8891 H         1 UNK         0.0809 
     93 H93        26.6337   26.8341   -2.9718 H         1 UNK         0.0809 
     94 H94        25.2606   23.6167   -2.0415 H         1 UNK         0.2990 
     95 H95        22.4745   22.3288   -0.4606 H         1 UNK         0.0690 
     96 H96        21.6317   21.3061   -2.5653 H         1 UNK         0.0788 
     97 H97        22.4500   22.5440   -3.5201 H         1 UNK         0.0788 
     98 H98        21.1258   22.9825   -2.4505 H         1 UNK         0.0788 
     99 H99        24.2835   21.2720   -2.4793 H         1 UNK         0.2993 
    100 H100       25.8370   19.3521   -0.3808 H         1 UNK         0.0949 
    101 H101       25.2807   19.4511   -2.7837 H         1 UNK         0.0767 
    102 H102       26.3739   20.8132   -3.0297 H         1 UNK         0.0767 
    103 H103       27.0067   19.2343   -2.5895 H         1 UNK         0.0767 
    104 H104       27.7542   20.1709    0.3545 H         1 UNK         0.3013 
    105 H105       28.6990   28.9427    2.1066 H         1 UNK         0.3121 
    106 H106       28.9069   31.2948    0.2913 H         1 UNK         0.0774 
    107 H107       30.6728   29.5877   -0.2762 H         1 UNK         0.0815 
    108 H108       31.2038   29.5855    1.3991 H         1 UNK         0.0815 
    109 H109       31.3853   31.0332    0.4049 H         1 UNK         0.0815 
    110 H110       31.1355   32.3404    1.8990 H         1 UNK         0.2987 
    111 H111       30.1789   32.6422    4.6218 H         1 UNK         0.0949 
    112 H112       30.1433   35.0267    2.6726 H         1 UNK         0.0806 
    113 H113       28.7212   34.3024    3.4205 H         1 UNK         0.0806 
    114 H114       29.9048   35.1343    4.4113 H         1 UNK         0.0806 
    115 H115       31.6603   34.0277    5.8367 H         1 UNK         0.3010 
    116 H116       33.6364   34.5955    6.6412 H         1 UNK         0.0829 
    117 H117       33.3320   36.4407    4.9940 H         1 UNK         0.0813 
    118 H118       35.0293   36.0998    5.2414 H         1 UNK         0.0813 
    119 H119       34.2197   35.5380    3.7760 H         1 UNK         0.0813 
    120 H120       35.9896   34.4625    4.4076 H         1 UNK         0.3038 
    121 H121       37.4583   32.4630    5.6649 H         1 UNK         0.0769 
    122 H122       37.8426   33.6992    2.8840 H         1 UNK         0.0811 
    123 H123       39.0765   32.8323    3.7872 H         1 UNK         0.0811 
    124 H124       38.4557   34.3518    4.4049 H         1 UNK         0.0811 
    125 H125       35.0118   31.9085    3.3185 H         1 UNK         0.3204 
    126 H126       35.9941   29.4340    2.2069 H         1 UNK         0.0748 
    127 H127       33.1612   30.5708    2.4290 H         1 UNK         0.0771 
    128 H128       34.2580   30.7852    1.0676 H         1 UNK         0.0771 
    129 H129       33.6305   29.1886    1.4431 H         1 UNK         0.0771 
    130 H130       34.6039   30.2283    5.3415 H         1 UNK         0.2980 
    131 H131       34.9527   27.4676    6.1169 H         1 UNK         0.0545 
    132 H132       34.9593   30.8389    7.0928 H         1 UNK         0.3459 
    133 H133       35.4264   30.4379    8.7255 H         1 UNK         0.3459 
    134 H134       32.6559   27.2413    5.3674 H         1 UNK         0.0616 
    135 H135       32.7350   27.0648    7.0858 H         1 UNK         0.0616 
    136 H136       31.8501   29.5960    4.1689 H         1 UNK         0.0634 
    137 H137       30.3753   30.2591    4.8213 H         1 UNK         0.0634 
@<TRIPOS>BOND
     1    1    2 1    
     2    1   72 1    
     3    1   73 1    
     4    1   74 1    
     5    2    3 2    
     6    2    4 am   BACKBONE|DICT|INTERRES
     7    4    5 1    
     8    4   75 1    
     9    5    6 1    
    10    5   35 1    
    11    5   76 1    
    12    6    7 1    
    13    6   77 1    
    14    6   78 1    
    15    7    8 1    
    16    8    9 1    
    17    8   79 1    
    18    8   80 1    
    19    9   10 ar   
    20    9   14 ar   
    21   10   11 ar   
    22   10   81 1    
    23   11   12 ar   
    24   11   71 1    
    25   12   13 ar   
    26   12   82 1    
    27   13   14 ar   
    28   13   15 1    
    29   14   83 1    
    30   15   16 1    
    31   15   84 1    
    32   15   85 1    
    33   16   17 1    
    34   17   18 1    
    35   17   86 1    
    36   17   87 1    
    37   18   19 1    
    38   18   37 1    
    39   18   88 1    
    40   19   20 am   BACKBONE|DICT|INTERRES
    41   19   89 1    
    42   20   21 2    
    43   20   22 1    
    44   22   23 1    
    45   22   24 1    
    46   22   90 1    
    47   23   91 1    
    48   23   92 1    
    49   23   93 1    
    50   24   25 am   BACKBONE|DICT|INTERRES
    51   24   94 1    
    52   25   26 2    
    53   25   27 1    
    54   27   28 1    
    55   27   29 1    
    56   27   95 1    
    57   28   96 1    
    58   28   97 1    
    59   28   98 1    
    60   29   30 am   BACKBONE|DICT|INTERRES
    61   29   99 1    
    62   30   31 2    
    63   30   32 1    
    64   32   33 1    
    65   32   34 1    
    66   32  100 1    
    67   33  101 1    
    68   33  102 1    
    69   33  103 1    
    70   34   35 am   BACKBONE|DICT|INTERRES
    71   34  104 1    
    72   35   36 2    
    73   37   38 2    
    74   37   39 am   BACKBONE|DICT|INTERRES
    75   39   40 1    
    76   39  105 1    
    77   40   41 1    
    78   40   42 1    
    79   40  106 1    
    80   41  107 1    
    81   41  108 1    
    82   41  109 1    
    83   42   43 2    
    84   42   44 am   BACKBONE|DICT|INTERRES
    85   44   45 1    
    86   44  110 1    
    87   45   46 1    
    88   45   47 1    
    89   45  111 1    
    90   46  112 1    
    91   46  113 1    
    92   46  114 1    
    93   47   48 2    
    94   47   49 am   BACKBONE|DICT|INTERRES
    95   49   50 1    
    96   49  115 1    
    97   50   51 1    
    98   50   52 1    
    99   50  116 1    
   100   51  117 1    
   101   51  118 1    
   102   51  119 1    
   103   52   53 2    
   104   52   54 am   BACKBONE|DICT|INTERRES
   105   54   55 1    
   106   54  120 1    
   107   55   56 1    
   108   55   57 1    
   109   55  121 1    
   110   56  122 1    
   111   56  123 1    
   112   56  124 1    
   113   57   58 2    
   114   57   59 am   BACKBONE|DICT|INTERRES
   115   59   60 1    
   116   59  125 1    
   117   60   61 1    
   118   60   62 1    
   119   60  126 1    
   120   61  127 1    
   121   61  128 1    
   122   61  129 1    
   123   62   63 2    
   124   62   64 am   BACKBONE|DICT|INTERRES
   125   64   65 1    
   126   64  130 1    
   127   65   66 1    
   128   65   69 1    
   129   65  131 1    
   130   66   67 am   BACKBONE|DICT|INTERRES
   131   66   68 2    
   132   67  132 1    
   133   67  133 1    
   134   69   70 1    
   135   69  134 1    
   136   69  135 1    
   137   70   71 1    
   138   71  136 1    
   139   71  137 1    
@<TRIPOS>SUBSTRUCTURE
     1 UNK         1 GROUP             0       ****    0 ROOT    
