@<TRIPOS>MOLECULE
3R136
137   139    1
SMALL
USER_CHARGES


@<TRIPOS>ATOM
      1 CA         26.8034   20.9252    1.8489 C.3       0 UNK        -0.1979 
      2 C          27.2384   22.3487    1.5406 C.2       0 UNK         0.4864 
      3 O          26.7126   22.9610    0.6099 O.2       0 UNK        -0.5359 
      4 N          28.1827   22.8922    2.3219 N.am      1 UNK        -0.4318 
      5 CA         28.7745   24.2280    2.1496 C.3       1 UNK         0.0824 
      6 C6         29.8887   24.5222    3.1866 C.3       12 UNK        -0.0944 
      7 S7         31.0774   23.1609    3.4618 S.3       12 UNK        -0.2672 
      8 C8         31.8002   22.8990    1.8078 C.3       12 UNK         0.0333 
      9 C9         32.3586   24.1766    1.1959 C.ar      12 UNK        -0.0807 
     10 C10        33.3709   24.8897    1.8443 C.ar      12 UNK        -0.0894 
     11 C11        33.8713   26.0714    1.2916 C.ar      12 UNK        -0.0804 
     12 C12        33.3722   26.5242    0.0673 C.ar      12 UNK        -0.0824 
     13 C13        32.3521   25.8256   -0.5882 C.ar      12 UNK        -0.0762 
     14 C14        31.8586   24.6474   -0.0214 C.ar      12 UNK        -0.0782 
     15 C15        31.7820   26.3184   -1.9144 C.3       12 UNK         0.0230 
     16 S16        31.4750   28.1148   -1.9637 S.3       12 UNK        -0.2608 
     17 C17        30.2259   28.3502   -0.6550 C.3       12 UNK        -0.0989 
     18 CA         28.7918   28.4422   -1.2436 C.3       5 UNK         0.0716 
     19 N          28.1684   27.1164   -1.3483 N.am      5 UNK        -0.4135 
     20 C          27.8005   26.5338   -2.4963 C.2       4 UNK         0.5031 
     21 O          27.9129   27.0587   -3.6051 O.2       4 UNK        -0.5229 
     22 CA         27.2221   25.1113   -2.4048 C.3       4 UNK         0.0329 
     23 CB         28.3415   24.0781   -2.2018 C.3       4 UNK        -0.2001 
     24 N          26.2130   24.9402   -1.3583 N.am      4 UNK        -0.4303 
     25 C          24.9871   25.4837   -1.3785 C.2       3 UNK         0.5044 
     26 O          24.5931   26.2600   -2.2489 O.2       3 UNK        -0.5152 
     27 CA         24.0339   25.0843   -0.2419 C.3       3 UNK         0.0319 
     28 CB         23.4566   23.6793   -0.4835 C.3       3 UNK        -0.2001 
     29 N          24.7261   25.1149    1.0465 N.am      3 UNK        -0.4354 
     30 C          24.6160   26.1082    1.9391 C.2       2 UNK         0.4964 
     31 O          23.8107   27.0323    1.8295 O.2       2 UNK        -0.5047 
     32 CA         25.5558   26.0956    3.1624 C.3       2 UNK         0.0288 
     33 CB         24.7804   25.7114    4.4329 C.3       2 UNK        -0.2113 
     34 N          26.7166   25.2130    3.0329 N.am      2 UNK        -0.4145 
     35 C          27.7211   25.3564    2.1556 C.2       1 UNK         0.5006 
     36 O          27.7898   26.2729    1.3323 O.2       1 UNK        -0.5103 
     37 C          27.9260   29.4226   -0.4291 C.2       5 UNK         0.5055 
     38 O          28.1518   30.6287   -0.5386 O.2       5 UNK        -0.5220 
     39 N          26.9729   28.9154    0.3693 N.am      6 UNK        -0.4450 
     40 CA         26.1205   29.6700    1.3007 C.3       6 UNK         0.0367 
     41 CB         25.2101   30.6735    0.5605 C.3       6 UNK        -0.1929 
     42 C          26.9172   30.3039    2.4584 C.2       6 UNK         0.5070 
     43 O          26.5334   31.3547    2.9744 O.2       6 UNK        -0.5237 
     44 N          28.0065   29.6388    2.8550 N.am      7 UNK        -0.4739 
     45 CA         28.9152   30.0148    3.9307 C.3       7 UNK         0.0276 
     46 CB         29.8596   31.1379    3.4574 C.3       7 UNK        -0.1927 
     47 C          29.7098   28.7671    4.3279 C.2       7 UNK         0.5013 
     48 O          29.7703   27.8128    3.5505 O.2       7 UNK        -0.5193 
     49 N          30.3294   28.8107    5.5083 N.am      8 UNK        -0.4253 
     50 CA         31.2566   27.8044    6.0143 C.3       8 UNK         0.0242 
     51 CB         30.4941   26.7501    6.8344 C.3       8 UNK        -0.2000 
     52 C          32.2972   28.5342    6.8688 C.2       8 UNK         0.4948 
     53 O          31.9827   29.5904    7.4264 O.2       8 UNK        -0.5275 
     54 N          33.5172   27.9832    6.9372 N.am      9 UNK        -0.4246 
     55 CA         34.7177   28.4896    7.6273 C.3       9 UNK         0.0261 
     56 CB         34.4993   28.5922    9.1500 C.3       9 UNK        -0.1959 
     57 C          35.2737   29.8073    7.0512 C.2       9 UNK         0.5033 
     58 O          36.4604   29.8749    6.7318 O.2       9 UNK        -0.5390 
     59 N          34.4054   30.8130    6.8964 N.am      10 UNK        -0.4215 
     60 CA         34.6727   32.0943    6.2359 C.3       10 UNK         0.0240 
     61 CB         33.7255   33.1538    6.8256 C.3       10 UNK        -0.1982 
     62 C          34.5238   32.0230    4.7015 C.2       10 UNK         0.4970 
     63 O          34.7432   33.0319    4.0298 O.2       10 UNK        -0.4916 
     64 N          34.1308   30.8544    4.1801 N.am      11 UNK        -0.4279 
     65 CA         33.9818   30.5330    2.7561 C.3       11 UNK         0.1003 
     66 C          35.2914   30.6729    1.9269 C.2       11 UNK         0.5709 
     67 N          35.1738   30.8739    0.6210 N.am      11 UNK        -0.7358 
     68 O          36.4037   30.5684    2.4411 O.2       11 UNK        -0.4999 
     69 C69        33.3304   29.1354    2.5804 C.3       12 UNK        -0.0954 
     70 S70        34.2304   27.7863    3.4284 S.3       12 UNK        -0.2268 
     71 C71        34.9393   26.8632    2.0293 C.3       12 UNK         0.0203 
     72 H72        26.9845   20.2852    0.9859 H         1 UNK         0.0888 
     73 H73        27.3420   20.5093    2.7001 H         1 UNK         0.0888 
     74 H74        25.7377   20.9003    2.0742 H         1 UNK         0.0888 
     75 H75        28.5883   22.3406    3.0655 H         1 UNK         0.3017 
     76 H76        29.2282   24.2385    1.1588 H         1 UNK         0.0873 
     77 H77        29.4548   24.7637    4.1587 H         1 UNK         0.0745 
     78 H78        30.4536   25.4063    2.8860 H         1 UNK         0.0745 
     79 H79        31.0442   22.4522    1.1603 H         1 UNK         0.0705 
     80 H80        32.6033   22.1653    1.8885 H         1 UNK         0.0705 
     81 H81        33.7530   24.5367    2.7925 H         1 UNK         0.1334 
     82 H82        33.7649   27.4332   -0.3672 H         1 UNK         0.1417 
     83 H83        31.0841   24.0923   -0.5311 H         1 UNK         0.1562 
     84 H84        30.8487   25.8063   -2.1493 H         1 UNK         0.0748 
     85 H85        32.4827   26.0624   -2.7099 H         1 UNK         0.0748 
     86 H86        30.5098   29.2711   -0.1403 H         1 UNK         0.0940 
     87 H87        30.2975   27.5664    0.1019 H         1 UNK         0.0940 
     88 H88        28.8542   28.9001   -2.2333 H         1 UNK         0.0703 
     89 H89        28.0390   26.6145   -0.4735 H         1 UNK         0.3081 
     90 H90        26.7408   24.8946   -3.3610 H         1 UNK         0.0719 
     91 H91        27.9524   23.0607   -2.2474 H         1 UNK         0.0809 
     92 H92        29.1047   24.1674   -2.9760 H         1 UNK         0.0809 
     93 H93        28.8307   24.2022   -1.2367 H         1 UNK         0.0809 
     94 H94        26.4317   24.2675   -0.6255 H         1 UNK         0.2990 
     95 H95        23.1997   25.7891   -0.2451 H         1 UNK         0.0690 
     96 H96        22.9291   23.6342   -1.4373 H         1 UNK         0.0788 
     97 H97        22.7429   23.4079    0.2944 H         1 UNK         0.0788 
     98 H98        24.2338   22.9145   -0.5044 H         1 UNK         0.0788 
     99 H99        25.4188   24.3894    1.1966 H         1 UNK         0.2993 
    100 H100       25.9330   27.1120    3.2896 H         1 UNK         0.0949 
    101 H101       24.3947   24.6925    4.3776 H         1 UNK         0.0767 
    102 H102       25.4092   25.7865    5.3205 H         1 UNK         0.0767 
    103 H103       23.9277   26.3746    4.5868 H         1 UNK         0.0767 
    104 H104       26.7391   24.4096    3.6442 H         1 UNK         0.3013 
    105 H105       26.9202   27.9072    0.4527 H         1 UNK         0.3121 
    106 H106       25.4658   28.9428    1.7728 H         1 UNK         0.0774 
    107 H107       25.7750   31.5042    0.1372 H         1 UNK         0.0815 
    108 H108       24.4709   31.1004    1.2392 H         1 UNK         0.0815 
    109 H109       24.6631   30.1895   -0.2484 H         1 UNK         0.0815 
    110 H110       28.2437   28.7534    2.4200 H         1 UNK         0.2987 
    111 H111       28.3343   30.3503    4.7926 H         1 UNK         0.0949 
    112 H112       30.4258   30.8392    2.5743 H         1 UNK         0.0806 
    113 H113       29.3064   32.0428    3.2060 H         1 UNK         0.0806 
    114 H114       30.5790   31.4062    4.2323 H         1 UNK         0.0806 
    115 H115       30.2812   29.6455    6.0804 H         1 UNK         0.3010 
    116 H116       31.7638   27.3192    5.1771 H         1 UNK         0.0829 
    117 H117       31.1714   25.9845    7.2148 H         1 UNK         0.0813 
    118 H118       29.9872   27.1959    7.6912 H         1 UNK         0.0813 
    119 H119       29.7429   26.2449    6.2272 H         1 UNK         0.0813 
    120 H120       33.6675   27.1299    6.4153 H         1 UNK         0.3038 
    121 H121       35.4872   27.7331    7.4635 H         1 UNK         0.0769 
    122 H122       33.7455   29.3356    9.4103 H         1 UNK         0.0811 
    123 H123       35.4224   28.8790    9.6556 H         1 UNK         0.0811 
    124 H124       34.1845   27.6367    9.5693 H         1 UNK         0.0811 
    125 H125       33.4424   30.6284    7.1779 H         1 UNK         0.3204 
    126 H126       35.7007   32.3954    6.4483 H         1 UNK         0.0748 
    127 H127       33.8548   33.2439    7.9044 H         1 UNK         0.0771 
    128 H128       33.9181   34.1377    6.3956 H         1 UNK         0.0771 
    129 H129       32.6796   32.9112    6.6322 H         1 UNK         0.0771 
    130 H130       34.0256   30.0724    4.8065 H         1 UNK         0.2980 
    131 H131       33.2836   31.2706    2.3559 H         1 UNK         0.0545 
    132 H132       36.0094   30.9563    0.0635 H         1 UNK         0.3459 
    133 H133       34.2704   30.9554    0.1819 H         1 UNK         0.3459 
    134 H134       32.3217   29.1544    2.9920 H         1 UNK         0.0616 
    135 H135       33.1997   28.9018    1.5238 H         1 UNK         0.0616 
    136 H136       35.4528   27.5529    1.3575 H         1 UNK         0.0634 
    137 H137       35.7002   26.1796    2.4082 H         1 UNK         0.0634 
@<TRIPOS>BOND
     1    1    2 1    
     2    1   72 1    
     3    1   73 1    
     4    1   74 1    
     5    2    3 2    
     6    2    4 am   BACKBONE|DICT|INTERRES
     7    4    5 1    
     8    4   75 1    
     9    5    6 1    
    10    5   35 1    
    11    5   76 1    
    12    6    7 1    
    13    6   77 1    
    14    6   78 1    
    15    7    8 1    
    16    8    9 1    
    17    8   79 1    
    18    8   80 1    
    19    9   10 ar   
    20    9   14 ar   
    21   10   11 ar   
    22   10   81 1    
    23   11   12 ar   
    24   11   71 1    
    25   12   13 ar   
    26   12   82 1    
    27   13   14 ar   
    28   13   15 1    
    29   14   83 1    
    30   15   16 1    
    31   15   84 1    
    32   15   85 1    
    33   16   17 1    
    34   17   18 1    
    35   17   86 1    
    36   17   87 1    
    37   18   19 1    
    38   18   37 1    
    39   18   88 1    
    40   19   20 am   BACKBONE|DICT|INTERRES
    41   19   89 1    
    42   20   21 2    
    43   20   22 1    
    44   22   23 1    
    45   22   24 1    
    46   22   90 1    
    47   23   91 1    
    48   23   92 1    
    49   23   93 1    
    50   24   25 am   BACKBONE|DICT|INTERRES
    51   24   94 1    
    52   25   26 2    
    53   25   27 1    
    54   27   28 1    
    55   27   29 1    
    56   27   95 1    
    57   28   96 1    
    58   28   97 1    
    59   28   98 1    
    60   29   30 am   BACKBONE|DICT|INTERRES
    61   29   99 1    
    62   30   31 2    
    63   30   32 1    
    64   32   33 1    
    65   32   34 1    
    66   32  100 1    
    67   33  101 1    
    68   33  102 1    
    69   33  103 1    
    70   34   35 am   BACKBONE|DICT|INTERRES
    71   34  104 1    
    72   35   36 2    
    73   37   38 2    
    74   37   39 am   BACKBONE|DICT|INTERRES
    75   39   40 1    
    76   39  105 1    
    77   40   41 1    
    78   40   42 1    
    79   40  106 1    
    80   41  107 1    
    81   41  108 1    
    82   41  109 1    
    83   42   43 2    
    84   42   44 am   BACKBONE|DICT|INTERRES
    85   44   45 1    
    86   44  110 1    
    87   45   46 1    
    88   45   47 1    
    89   45  111 1    
    90   46  112 1    
    91   46  113 1    
    92   46  114 1    
    93   47   48 2    
    94   47   49 am   BACKBONE|DICT|INTERRES
    95   49   50 1    
    96   49  115 1    
    97   50   51 1    
    98   50   52 1    
    99   50  116 1    
   100   51  117 1    
   101   51  118 1    
   102   51  119 1    
   103   52   53 2    
   104   52   54 am   BACKBONE|DICT|INTERRES
   105   54   55 1    
   106   54  120 1    
   107   55   56 1    
   108   55   57 1    
   109   55  121 1    
   110   56  122 1    
   111   56  123 1    
   112   56  124 1    
   113   57   58 2    
   114   57   59 am   BACKBONE|DICT|INTERRES
   115   59   60 1    
   116   59  125 1    
   117   60   61 1    
   118   60   62 1    
   119   60  126 1    
   120   61  127 1    
   121   61  128 1    
   122   61  129 1    
   123   62   63 2    
   124   62   64 am   BACKBONE|DICT|INTERRES
   125   64   65 1    
   126   64  130 1    
   127   65   66 1    
   128   65   69 1    
   129   65  131 1    
   130   66   67 am   BACKBONE|DICT|INTERRES
   131   66   68 2    
   132   67  132 1    
   133   67  133 1    
   134   69   70 1    
   135   69  134 1    
   136   69  135 1    
   137   70   71 1    
   138   71  136 1    
   139   71  137 1    
@<TRIPOS>SUBSTRUCTURE
     1 UNK         1 GROUP             0       ****    0 ROOT    
