@<TRIPOS>MOLECULE
3R136
137   139    1
SMALL
USER_CHARGES


@<TRIPOS>ATOM
      1 CA         29.7088   24.7557    7.1129 C.3       0 UNK        -0.1979 
      2 C          29.3021   23.6937    6.1017 C.2       0 UNK         0.4864 
      3 O          29.3065   22.5070    6.4332 O.2       0 UNK        -0.5359 
      4 N          28.9433   24.1144    4.8831 N.am      1 UNK        -0.4318 
      5 CA         28.3982   23.2646    3.8204 C.3       1 UNK         0.0824 
      6 C6         29.3009   23.1942    2.5582 C.3       12 UNK        -0.0944 
      7 S7         30.9728   22.5520    2.8859 S.3       12 UNK        -0.2672 
      8 C8         31.6435   22.3856    1.1921 C.3       12 UNK         0.0333 
      9 C9         32.1836   23.6870    0.5981 C.ar      12 UNK        -0.0807 
     10 C10        33.0281   24.5132    1.3460 C.ar      12 UNK        -0.0894 
     11 C11        33.5642   25.6767    0.7895 C.ar      12 UNK        -0.0804 
     12 C12        33.2761   26.0029   -0.5367 C.ar      12 UNK        -0.0824 
     13 C13        32.4531   25.1774   -1.3170 C.ar      12 UNK        -0.0762 
     14 C14        31.9022   24.0288   -0.7312 C.ar      12 UNK        -0.0782 
     15 C15        32.1867   25.4428   -2.8048 C.3       12 UNK         0.0230 
     16 S16        32.7752   27.0581   -3.4409 S.3       12 UNK        -0.2608 
     17 C17        31.2240   27.9781   -3.7391 C.3       12 UNK        -0.0989 
     18 CA         30.6544   28.7226   -2.5036 C.3       5 UNK         0.0716 
     19 N          30.3159   27.7769   -1.4395 N.am      5 UNK        -0.4135 
     20 C          29.3446   27.9399   -0.5397 C.2       4 UNK         0.5031 
     21 O          28.7201   28.9910   -0.3797 O.2       4 UNK        -0.5229 
     22 CA         29.0393   26.7112    0.3344 C.3       4 UNK         0.0329 
     23 CB         29.9457   26.6981    1.5820 C.3       4 UNK        -0.2001 
     24 N          27.6208   26.6459    0.7142 N.am      4 UNK        -0.4303 
     25 C          26.6042   26.5722   -0.1624 C.2       3 UNK         0.5044 
     26 O          26.7562   26.4349   -1.3787 O.2       3 UNK        -0.5152 
     27 CA         25.1833   26.6550    0.4302 C.3       3 UNK         0.0319 
     28 CB         24.0757   26.7118   -0.6445 C.3       3 UNK        -0.2001 
     29 N          24.9266   25.5797    1.3921 N.am      3 UNK        -0.4354 
     30 C          24.9532   24.2581    1.1653 C.2       2 UNK         0.4964 
     31 O          25.1264   23.7374    0.0620 O.2       2 UNK        -0.5047 
     32 CA         24.8167   23.3644    2.4109 C.3       2 UNK         0.0288 
     33 CB         24.0048   22.0892    2.1188 C.3       2 UNK        -0.2113 
     34 N          26.1362   22.9878    2.9220 N.am      2 UNK        -0.4145 
     35 C          27.0250   23.8425    3.4469 C.2       1 UNK         0.5006 
     36 O          26.8041   25.0471    3.6104 O.2       1 UNK        -0.5103 
     37 C          31.5242   29.9177   -2.0462 C.2       5 UNK         0.5055 
     38 O          31.9359   30.7133   -2.8933 O.2       5 UNK        -0.5220 
     39 N          31.7823   30.0490   -0.7396 N.am      6 UNK        -0.4450 
     40 CA         32.5420   31.1342   -0.1295 C.3       6 UNK         0.0367 
     41 CB         34.0494   30.8244   -0.2194 C.3       6 UNK        -0.1929 
     42 C          32.0869   31.3185    1.3246 C.2       6 UNK         0.5070 
     43 O          31.3130   30.5047    1.8384 O.2       6 UNK        -0.5237 
     44 N          32.5829   32.3947    1.9540 N.am      7 UNK        -0.4739 
     45 CA         32.4774   32.7269    3.3839 C.3       7 UNK         0.0276 
     46 CB         33.3683   31.7702    4.2035 C.3       7 UNK        -0.1927 
     47 C          31.0368   32.7786    3.9305 C.2       7 UNK         0.5013 
     48 O          30.8095   32.4021    5.0804 O.2       7 UNK        -0.5193 
     49 N          30.0784   33.1983    3.0899 N.am      8 UNK        -0.4253 
     50 CA         28.6321   33.2210    3.3612 C.3       8 UNK         0.0242 
     51 CB         28.2887   34.3426    4.3651 C.3       8 UNK        -0.2000 
     52 C          28.0760   31.8437    3.7899 C.2       8 UNK         0.4948 
     53 O          27.2122   31.7739    4.6651 O.2       8 UNK        -0.5275 
     54 N          28.6173   30.7804    3.1766 N.am      9 UNK        -0.4246 
     55 CA         28.3644   29.3548    3.4060 C.3       9 UNK         0.0261 
     56 CB         26.8634   28.9982    3.3570 C.3       9 UNK        -0.1959 
     57 C          29.0625   28.7583    4.6451 C.2       9 UNK         0.5033 
     58 O          28.9842   27.5425    4.8349 O.2       9 UNK        -0.5390 
     59 N          29.7484   29.5768    5.4583 N.am      10 UNK        -0.4215 
     60 CA         30.3439   29.1532    6.7313 C.3       10 UNK         0.0240 
     61 CB         30.7052   30.3881    7.5719 C.3       10 UNK        -0.1982 
     62 C          31.5649   28.2267    6.5964 C.2       10 UNK         0.4970 
     63 O          31.8709   27.5177    7.5560 O.2       10 UNK        -0.4916 
     64 N          32.2446   28.2434    5.4413 N.am      11 UNK        -0.4279 
     65 CA         33.3981   27.3715    5.1645 C.3       11 UNK         0.1003 
     66 C          33.0322   25.8813    4.9028 C.2       11 UNK         0.5709 
     67 N          31.7862   25.5629    4.5754 N.am      11 UNK        -0.7358 
     68 O          33.8932   25.0101    4.9962 O.2       11 UNK        -0.4999 
     69 C69        34.3122   27.9571    4.0562 C.3       12 UNK        -0.0954 
     70 S70        33.5630   27.9300    2.3898 S.3       12 UNK        -0.2268 
     71 C71        34.4827   26.5642    1.6125 C.3       12 UNK         0.0203 
     72 H72        30.7782   24.6941    7.3133 H         1 UNK         0.0888 
     73 H73        29.4898   25.7612    6.7557 H         1 UNK         0.0888 
     74 H74        29.1753   24.6094    8.0515 H         1 UNK         0.0888 
     75 H75        28.8549   25.1091    4.7064 H         1 UNK         0.3017 
     76 H76        28.2410   22.2500    4.1927 H         1 UNK         0.0873 
     77 H77        29.3954   24.1686    2.0876 H         1 UNK         0.0745 
     78 H78        28.8407   22.5473    1.8089 H         1 UNK         0.0745 
     79 H79        32.4621   21.6654    1.2210 H         1 UNK         0.0705 
     80 H80        30.8794   21.9500    0.5467 H         1 UNK         0.0705 
     81 H81        33.2706   24.2484    2.3658 H         1 UNK         0.1334 
     82 H82        33.7247   26.8941   -0.9511 H         1 UNK         0.1417 
     83 H83        31.2783   23.3759   -1.3271 H         1 UNK         0.1562 
     84 H84        31.1228   25.3243   -3.0147 H         1 UNK         0.0748 
     85 H85        32.6917   24.6632   -3.3769 H         1 UNK         0.0748 
     86 H86        30.4740   27.2905   -4.1334 H         1 UNK         0.0940 
     87 H87        31.4058   28.6847   -4.5513 H         1 UNK         0.0940 
     88 H88        29.7170   29.1776   -2.8318 H         1 UNK         0.0703 
     89 H89        30.8372   26.9119   -1.4470 H         1 UNK         0.3081 
     90 H90        29.2442   25.8092   -0.2467 H         1 UNK         0.0719 
     91 H91        30.7413   25.9676    1.4627 H         1 UNK         0.0809 
     92 H92        30.4494   27.6498    1.7569 H         1 UNK         0.0809 
     93 H93        29.4059   26.4353    2.4903 H         1 UNK         0.0809 
     94 H94        27.4065   26.7160    1.6985 H         1 UNK         0.2990 
     95 H95        25.1382   27.5898    0.9910 H         1 UNK         0.0690 
     96 H96        23.0894   26.8145   -0.1922 H         1 UNK         0.0788 
     97 H97        24.0660   25.8187   -1.2701 H         1 UNK         0.0788 
     98 H98        24.2201   27.5675   -1.3053 H         1 UNK         0.0788 
     99 H99        24.8528   25.8754    2.3568 H         1 UNK         0.2993 
    100 H100       24.2915   23.9244    3.1881 H         1 UNK         0.0949 
    101 H101       23.8505   21.5016    3.0241 H         1 UNK         0.0767 
    102 H102       23.0191   22.3384    1.7234 H         1 UNK         0.0767 
    103 H103       24.4983   21.4506    1.3848 H         1 UNK         0.0767 
    104 H104       26.4036   22.0221    2.7965 H         1 UNK         0.3013 
    105 H105       31.3461   29.4237   -0.0733 H         1 UNK         0.3121 
    106 H106       32.3290   32.0644   -0.6607 H         1 UNK         0.0774 
    107 H107       34.3000   29.8961    0.2937 H         1 UNK         0.0815 
    108 H108       34.6493   31.6170    0.2285 H         1 UNK         0.0815 
    109 H109       34.3725   30.7267   -1.2559 H         1 UNK         0.0815 
    110 H110       33.1717   33.0171    1.4170 H         1 UNK         0.2987 
    111 H111       32.8777   33.7352    3.5007 H         1 UNK         0.0949 
    112 H112       32.9783   30.7534    4.1793 H         1 UNK         0.0806 
    113 H113       34.3887   31.7476    3.8213 H         1 UNK         0.0806 
    114 H114       33.4216   32.0749    5.2495 H         1 UNK         0.0806 
    115 H115       30.3610   33.4688    2.1579 H         1 UNK         0.3010 
    116 H116       28.1433   33.4620    2.4160 H         1 UNK         0.0829 
    117 H117       28.7033   34.1411    5.3535 H         1 UNK         0.0813 
    118 H118       28.6725   35.3063    4.0306 H         1 UNK         0.0813 
    119 H119       27.2093   34.4480    4.4810 H         1 UNK         0.0813 
    120 H120       29.3773   30.9559    2.5257 H         1 UNK         0.3038 
    121 H121       28.8189   28.8781    2.5445 H         1 UNK         0.0769 
    122 H122       26.7200   27.9174    3.3746 H         1 UNK         0.0811 
    123 H123       26.3189   29.4000    4.2112 H         1 UNK         0.0811 
    124 H124       26.3956   29.3754    2.4478 H         1 UNK         0.0811 
    125 H125       29.8227   30.5629    5.2285 H         1 UNK         0.3204 
    126 H126       29.5796   28.5940    7.2755 H         1 UNK         0.0748 
    127 H127       31.0152   30.0975    8.5766 H         1 UNK         0.0771 
    128 H128       31.5295   30.9491    7.1304 H         1 UNK         0.0771 
    129 H129       29.8559   31.0636    7.6772 H         1 UNK         0.0771 
    130 H130       31.9261   28.8276    4.6828 H         1 UNK         0.2980 
    131 H131       34.0033   27.3609    6.0732 H         1 UNK         0.0545 
    132 H132       31.0835   26.2819    4.5029 H         1 UNK         0.3459 
    133 H133       31.5590   24.6012    4.3743 H         1 UNK         0.3459 
    134 H134       34.5668   28.9897    4.2953 H         1 UNK         0.0616 
    135 H135       35.2678   27.4310    4.0429 H         1 UNK         0.0616 
    136 H136       34.9836   25.9571    2.3675 H         1 UNK         0.0634 
    137 H137       35.2718   26.9798    0.9843 H         1 UNK         0.0634 
@<TRIPOS>BOND
     1    1    2 1    
     2    1   72 1    
     3    1   73 1    
     4    1   74 1    
     5    2    3 2    
     6    2    4 am   BACKBONE|DICT|INTERRES
     7    4    5 1    
     8    4   75 1    
     9    5    6 1    
    10    5   35 1    
    11    5   76 1    
    12    6    7 1    
    13    6   77 1    
    14    6   78 1    
    15    7    8 1    
    16    8    9 1    
    17    8   79 1    
    18    8   80 1    
    19    9   10 ar   
    20    9   14 ar   
    21   10   11 ar   
    22   10   81 1    
    23   11   12 ar   
    24   11   71 1    
    25   12   13 ar   
    26   12   82 1    
    27   13   14 ar   
    28   13   15 1    
    29   14   83 1    
    30   15   16 1    
    31   15   84 1    
    32   15   85 1    
    33   16   17 1    
    34   17   18 1    
    35   17   86 1    
    36   17   87 1    
    37   18   19 1    
    38   18   37 1    
    39   18   88 1    
    40   19   20 am   BACKBONE|DICT|INTERRES
    41   19   89 1    
    42   20   21 2    
    43   20   22 1    
    44   22   23 1    
    45   22   24 1    
    46   22   90 1    
    47   23   91 1    
    48   23   92 1    
    49   23   93 1    
    50   24   25 am   BACKBONE|DICT|INTERRES
    51   24   94 1    
    52   25   26 2    
    53   25   27 1    
    54   27   28 1    
    55   27   29 1    
    56   27   95 1    
    57   28   96 1    
    58   28   97 1    
    59   28   98 1    
    60   29   30 am   BACKBONE|DICT|INTERRES
    61   29   99 1    
    62   30   31 2    
    63   30   32 1    
    64   32   33 1    
    65   32   34 1    
    66   32  100 1    
    67   33  101 1    
    68   33  102 1    
    69   33  103 1    
    70   34   35 am   BACKBONE|DICT|INTERRES
    71   34  104 1    
    72   35   36 2    
    73   37   38 2    
    74   37   39 am   BACKBONE|DICT|INTERRES
    75   39   40 1    
    76   39  105 1    
    77   40   41 1    
    78   40   42 1    
    79   40  106 1    
    80   41  107 1    
    81   41  108 1    
    82   41  109 1    
    83   42   43 2    
    84   42   44 am   BACKBONE|DICT|INTERRES
    85   44   45 1    
    86   44  110 1    
    87   45   46 1    
    88   45   47 1    
    89   45  111 1    
    90   46  112 1    
    91   46  113 1    
    92   46  114 1    
    93   47   48 2    
    94   47   49 am   BACKBONE|DICT|INTERRES
    95   49   50 1    
    96   49  115 1    
    97   50   51 1    
    98   50   52 1    
    99   50  116 1    
   100   51  117 1    
   101   51  118 1    
   102   51  119 1    
   103   52   53 2    
   104   52   54 am   BACKBONE|DICT|INTERRES
   105   54   55 1    
   106   54  120 1    
   107   55   56 1    
   108   55   57 1    
   109   55  121 1    
   110   56  122 1    
   111   56  123 1    
   112   56  124 1    
   113   57   58 2    
   114   57   59 am   BACKBONE|DICT|INTERRES
   115   59   60 1    
   116   59  125 1    
   117   60   61 1    
   118   60   62 1    
   119   60  126 1    
   120   61  127 1    
   121   61  128 1    
   122   61  129 1    
   123   62   63 2    
   124   62   64 am   BACKBONE|DICT|INTERRES
   125   64   65 1    
   126   64  130 1    
   127   65   66 1    
   128   65   69 1    
   129   65  131 1    
   130   66   67 am   BACKBONE|DICT|INTERRES
   131   66   68 2    
   132   67  132 1    
   133   67  133 1    
   134   69   70 1    
   135   69  134 1    
   136   69  135 1    
   137   70   71 1    
   138   71  136 1    
   139   71  137 1    
@<TRIPOS>SUBSTRUCTURE
     1 UNK         1 GROUP             0       ****    0 ROOT    
