@<TRIPOS>MOLECULE
3R136
137   139    1
SMALL
USER_CHARGES


@<TRIPOS>ATOM
      1 CA         27.5999   17.2084   -0.7157 C.3       0 UNK        -0.1979 
      2 C          28.3910   18.5072   -0.7676 C.2       0 UNK         0.4864 
      3 O          29.2963   18.6394   -1.5933 O.2       0 UNK        -0.5359 
      4 N          28.0636   19.4614    0.1130 N.am      1 UNK        -0.4318 
      5 CA         28.6825   20.7887    0.1798 C.3       1 UNK         0.0824 
      6 C6         28.3256   21.5214    1.4959 C.3       12 UNK        -0.0944 
      7 S7         28.9792   20.6851    2.9800 S.3       12 UNK        -0.2672 
      8 C8         30.7101   21.2609    3.0251 C.3       12 UNK         0.0333 
      9 C9         30.8238   22.7698    3.1977 C.ar      12 UNK        -0.0807 
     10 C10        31.0996   23.5854    2.0965 C.ar      12 UNK        -0.0894 
     11 C11        31.1930   24.9734    2.2322 C.ar      12 UNK        -0.0804 
     12 C12        31.0392   25.5373    3.5069 C.ar      12 UNK        -0.0824 
     13 C13        30.7610   24.7359    4.6189 C.ar      12 UNK        -0.0762 
     14 C14        30.6566   23.3512    4.4569 C.ar      12 UNK        -0.0782 
     15 C15        30.5810   25.3542    5.9999 C.3       12 UNK         0.0230 
     16 S16        28.8285   25.3628    6.5049 S.3       12 UNK        -0.2608 
     17 C17        28.3451   27.1067    6.2562 C.3       12 UNK        -0.0989 
     18 CA         28.2452   27.5207    4.7639 C.3       5 UNK         0.0716 
     19 N          27.3657   26.6524    3.9715 N.am      5 UNK        -0.4135 
     20 C          26.0295   26.5726    4.0342 C.2       4 UNK         0.5031 
     21 O          25.3347   27.2318    4.8100 O.2       4 UNK        -0.5229 
     22 CA         25.3587   25.6032    3.0379 C.3       4 UNK         0.0329 
     23 CB         23.8228   25.5942    3.1598 C.3       4 UNK        -0.2001 
     24 N          25.7203   25.8928    1.6450 N.am      4 UNK        -0.4303 
     25 C          26.8821   25.5591    1.0727 C.2       3 UNK         0.5044 
     26 O          27.8017   25.0005    1.6749 O.2       3 UNK        -0.5152 
     27 CA         27.0723   25.9371   -0.3975 C.3       3 UNK         0.0319 
     28 CB         27.6578   27.3542   -0.5318 C.3       3 UNK        -0.2001 
     29 N          27.9867   24.9597   -0.9727 N.am      3 UNK        -0.4354 
     30 C          28.0515   24.5921   -2.2561 C.2       2 UNK         0.4964 
     31 O          27.3847   25.1086   -3.1534 O.2       2 UNK        -0.5047 
     32 CA         29.0198   23.4443   -2.5993 C.3       2 UNK         0.0288 
     33 CB         30.3836   24.0082   -3.0318 C.3       2 UNK        -0.2113 
     34 N          29.2201   22.4934   -1.4988 N.am      2 UNK        -0.4145 
     35 C          28.2825   21.6546   -1.0325 C.2       1 UNK         0.5006 
     36 O          27.1397   21.5774   -1.4922 O.2       1 UNK        -0.5103 
     37 C          27.8975   29.0110    4.5625 C.2       5 UNK         0.5055 
     38 O          27.6641   29.7371    5.5308 O.2       5 UNK        -0.5220 
     39 N          27.8487   29.4210    3.2905 N.am      6 UNK        -0.4450 
     40 CA         27.5186   30.7700    2.8379 C.3       6 UNK         0.0367 
     41 CB         26.2223   30.6984    2.0089 C.3       6 UNK        -0.1929 
     42 C          28.6814   31.3401    2.0115 C.2       6 UNK         0.5070 
     43 O          29.6791   30.6499    1.7931 O.2       6 UNK        -0.5237 
     44 N          28.5199   32.5924    1.5652 N.am      7 UNK        -0.4739 
     45 CA         29.4895   33.3953    0.8086 C.3       7 UNK         0.0276 
     46 CB         29.8603   32.7144   -0.5306 C.3       7 UNK        -0.1927 
     47 C          30.7135   33.7973    1.6574 C.2       7 UNK         0.5013 
     48 O          30.6446   33.7610    2.8904 O.2       7 UNK        -0.5193 
     49 N          31.7873   34.2290    0.9786 N.am      8 UNK        -0.4253 
     50 CA         33.0207   34.7903    1.5396 C.3       8 UNK         0.0242 
     51 CB         34.0320   35.0210    0.4038 C.3       8 UNK        -0.2000 
     52 C          33.6333   33.9171    2.6457 C.2       8 UNK         0.4948 
     53 O          34.1171   32.8205    2.3574 O.2       8 UNK        -0.5275 
     54 N          33.5513   34.4107    3.8898 N.am      9 UNK        -0.4246 
     55 CA         34.0154   33.7810    5.1327 C.3       9 UNK         0.0261 
     56 CB         35.5588   33.7595    5.1740 C.3       9 UNK        -0.1959 
     57 C          33.3978   32.3935    5.4159 C.2       9 UNK         0.5033 
     58 O          34.0212   31.5976    6.1204 O.2       9 UNK        -0.5390 
     59 N          32.1971   32.1288    4.8706 N.am      10 UNK        -0.4215 
     60 CA         31.4885   30.8423    4.8895 C.3       10 UNK         0.0240 
     61 CB         31.0315   30.4818    6.3194 C.3       10 UNK        -0.1982 
     62 C          32.3106   29.7271    4.2109 C.2       10 UNK         0.4970 
     63 O          32.5493   28.6815    4.8180 O.2       10 UNK        -0.4916 
     64 N          32.7427   30.0006    2.9725 N.am      11 UNK        -0.4279 
     65 CA         33.6835   29.1999    2.1707 C.3       11 UNK         0.1003 
     66 C          35.1418   29.3023    2.7041 C.2       11 UNK         0.5709 
     67 N          35.6247   30.5028    2.9954 N.am      11 UNK        -0.7358 
     68 O          35.8488   28.3064    2.8460 O.2       11 UNK        -0.4999 
     69 C69        33.2298   27.7343    1.9064 C.3       12 UNK        -0.0954 
     70 S70        31.5631   27.6072    1.1802 S.3       12 UNK        -0.2268 
     71 C71        31.4345   25.7996    0.9645 C.3       12 UNK         0.0203 
     72 H72        27.0984   17.0366   -1.6677 H         1 UNK         0.0888 
     73 H73        28.2683   16.3691   -0.5254 H         1 UNK         0.0888 
     74 H74        26.8431   17.2232    0.0685 H         1 UNK         0.0888 
     75 H75        27.3071   19.3016    0.7624 H         1 UNK         0.3017 
     76 H76        29.7648   20.6469    0.1450 H         1 UNK         0.0873 
     77 H77        27.2420   21.6004    1.6040 H         1 UNK         0.0745 
     78 H78        28.6869   22.5485    1.4858 H         1 UNK         0.0745 
     79 H79        31.2228   20.9376    2.1181 H         1 UNK         0.0705 
     80 H80        31.2212   20.7641    3.8510 H         1 UNK         0.0705 
     81 H81        31.2258   23.1376    1.1210 H         1 UNK         0.1334 
     82 H82        31.1350   26.6030    3.6454 H         1 UNK         0.1417 
     83 H83        30.4363   22.7259    5.3117 H         1 UNK         0.1562 
     84 H84        30.9919   26.3649    6.0325 H         1 UNK         0.0748 
     85 H85        31.1511   24.7742    6.7271 H         1 UNK         0.0748 
     86 H86        29.0583   27.7377    6.7880 H         1 UNK         0.0940 
     87 H87        27.3851   27.2604    6.7525 H         1 UNK         0.0940 
     88 H88        29.2371   27.4155    4.3337 H         1 UNK         0.0703 
     89 H89        27.8251   26.0504    3.2925 H         1 UNK         0.3081 
     90 H90        25.7127   24.6002    3.2877 H         1 UNK         0.0719 
     91 H91        23.3930   26.5692    2.9268 H         1 UNK         0.0809 
     92 H92        23.3754   24.8602    2.4893 H         1 UNK         0.0809 
     93 H93        23.5124   25.3341    4.1727 H         1 UNK         0.0809 
     94 H94        25.0309   26.3870    1.0964 H         1 UNK         0.2990 
     95 H95        26.1082   25.8798   -0.9075 H         1 UNK         0.0690 
     96 H96        27.8210   27.6190   -1.5766 H         1 UNK         0.0788 
     97 H97        28.6121   27.4479   -0.0116 H         1 UNK         0.0788 
     98 H98        26.9807   28.0983   -0.1124 H         1 UNK         0.0788 
     99 H99        28.5354   24.4655   -0.2806 H         1 UNK         0.2993 
    100 H100       28.5904   22.8976   -3.4420 H         1 UNK         0.0949 
    101 H101       31.0563   23.2149   -3.3587 H         1 UNK         0.0767 
    102 H102       30.2716   24.6997   -3.8682 H         1 UNK         0.0767 
    103 H103       30.8722   24.5531   -2.2228 H         1 UNK         0.0767 
    104 H104       30.1396   22.4788   -1.0831 H         1 UNK         0.3013 
    105 H105       28.1535   28.7885    2.5641 H         1 UNK         0.3121 
    106 H106       27.3616   31.4339    3.6907 H         1 UNK         0.0774 
    107 H107       25.8744   31.6920    1.7252 H         1 UNK         0.0815 
    108 H108       26.3607   30.1273    1.0906 H         1 UNK         0.0815 
    109 H109       25.4176   30.2289    2.5755 H         1 UNK         0.0815 
    110 H110       27.6771   33.0821    1.8319 H         1 UNK         0.2987 
    111 H111       28.9757   34.3278    0.5698 H         1 UNK         0.0949 
    112 H112       30.5305   31.8659   -0.3861 H         1 UNK         0.0806 
    113 H113       28.9720   32.3495   -1.0465 H         1 UNK         0.0806 
    114 H114       30.3535   33.4096   -1.2104 H         1 UNK         0.0806 
    115 H115       31.7421   34.1977   -0.0292 H         1 UNK         0.3010 
    116 H116       32.7669   35.7643    1.9629 H         1 UNK         0.0829 
    117 H117       33.6462   35.7191   -0.3393 H         1 UNK         0.0813 
    118 H118       34.9620   35.4418    0.7889 H         1 UNK         0.0813 
    119 H119       34.2841   34.0905   -0.1071 H         1 UNK         0.0813 
    120 H120       33.0881   35.3014    4.0101 H         1 UNK         0.3038 
    121 H121       33.6745   34.4258    5.9441 H         1 UNK         0.0769 
    122 H122       35.9232   33.4213    6.1447 H         1 UNK         0.0811 
    123 H123       35.9743   34.7528    5.0044 H         1 UNK         0.0811 
    124 H124       35.9734   33.0900    4.4202 H         1 UNK         0.0811 
    125 H125       31.7684   32.8472    4.2917 H         1 UNK         0.3204 
    126 H126       30.5901   30.9761    4.2877 H         1 UNK         0.0748 
    127 H127       30.4449   29.5645    6.3175 H         1 UNK         0.0771 
    128 H128       31.8739   30.3220    6.9927 H         1 UNK         0.0771 
    129 H129       30.4040   31.2654    6.7437 H         1 UNK         0.0771 
    130 H130       32.5072   30.8990    2.5758 H         1 UNK         0.2980 
    131 H131       33.7128   29.6899    1.1969 H         1 UNK         0.0545 
    132 H132       35.0644   31.3374    2.8315 H         1 UNK         0.3459 
    133 H133       36.5663   30.5855    3.3415 H         1 UNK         0.3459 
    134 H134       33.9240   27.2540    1.2148 H         1 UNK         0.0616 
    135 H135       33.2705   27.1467    2.8236 H         1 UNK         0.0616 
    136 H136       32.3353   25.4404    0.4650 H         1 UNK         0.0634 
    137 H137       30.6079   25.6136    0.2779 H         1 UNK         0.0634 
@<TRIPOS>BOND
     1    1    2 1    
     2    1   72 1    
     3    1   73 1    
     4    1   74 1    
     5    2    3 2    
     6    2    4 am   BACKBONE|DICT|INTERRES
     7    4    5 1    
     8    4   75 1    
     9    5    6 1    
    10    5   35 1    
    11    5   76 1    
    12    6    7 1    
    13    6   77 1    
    14    6   78 1    
    15    7    8 1    
    16    8    9 1    
    17    8   79 1    
    18    8   80 1    
    19    9   10 ar   
    20    9   14 ar   
    21   10   11 ar   
    22   10   81 1    
    23   11   12 ar   
    24   11   71 1    
    25   12   13 ar   
    26   12   82 1    
    27   13   14 ar   
    28   13   15 1    
    29   14   83 1    
    30   15   16 1    
    31   15   84 1    
    32   15   85 1    
    33   16   17 1    
    34   17   18 1    
    35   17   86 1    
    36   17   87 1    
    37   18   19 1    
    38   18   37 1    
    39   18   88 1    
    40   19   20 am   BACKBONE|DICT|INTERRES
    41   19   89 1    
    42   20   21 2    
    43   20   22 1    
    44   22   23 1    
    45   22   24 1    
    46   22   90 1    
    47   23   91 1    
    48   23   92 1    
    49   23   93 1    
    50   24   25 am   BACKBONE|DICT|INTERRES
    51   24   94 1    
    52   25   26 2    
    53   25   27 1    
    54   27   28 1    
    55   27   29 1    
    56   27   95 1    
    57   28   96 1    
    58   28   97 1    
    59   28   98 1    
    60   29   30 am   BACKBONE|DICT|INTERRES
    61   29   99 1    
    62   30   31 2    
    63   30   32 1    
    64   32   33 1    
    65   32   34 1    
    66   32  100 1    
    67   33  101 1    
    68   33  102 1    
    69   33  103 1    
    70   34   35 am   BACKBONE|DICT|INTERRES
    71   34  104 1    
    72   35   36 2    
    73   37   38 2    
    74   37   39 am   BACKBONE|DICT|INTERRES
    75   39   40 1    
    76   39  105 1    
    77   40   41 1    
    78   40   42 1    
    79   40  106 1    
    80   41  107 1    
    81   41  108 1    
    82   41  109 1    
    83   42   43 2    
    84   42   44 am   BACKBONE|DICT|INTERRES
    85   44   45 1    
    86   44  110 1    
    87   45   46 1    
    88   45   47 1    
    89   45  111 1    
    90   46  112 1    
    91   46  113 1    
    92   46  114 1    
    93   47   48 2    
    94   47   49 am   BACKBONE|DICT|INTERRES
    95   49   50 1    
    96   49  115 1    
    97   50   51 1    
    98   50   52 1    
    99   50  116 1    
   100   51  117 1    
   101   51  118 1    
   102   51  119 1    
   103   52   53 2    
   104   52   54 am   BACKBONE|DICT|INTERRES
   105   54   55 1    
   106   54  120 1    
   107   55   56 1    
   108   55   57 1    
   109   55  121 1    
   110   56  122 1    
   111   56  123 1    
   112   56  124 1    
   113   57   58 2    
   114   57   59 am   BACKBONE|DICT|INTERRES
   115   59   60 1    
   116   59  125 1    
   117   60   61 1    
   118   60   62 1    
   119   60  126 1    
   120   61  127 1    
   121   61  128 1    
   122   61  129 1    
   123   62   63 2    
   124   62   64 am   BACKBONE|DICT|INTERRES
   125   64   65 1    
   126   64  130 1    
   127   65   66 1    
   128   65   69 1    
   129   65  131 1    
   130   66   67 am   BACKBONE|DICT|INTERRES
   131   66   68 2    
   132   67  132 1    
   133   67  133 1    
   134   69   70 1    
   135   69  134 1    
   136   69  135 1    
   137   70   71 1    
   138   71  136 1    
   139   71  137 1    
@<TRIPOS>SUBSTRUCTURE
     1 UNK         1 GROUP             0       ****    0 ROOT    
