@<TRIPOS>MOLECULE
3R136
137   139    1
SMALL
USER_CHARGES


@<TRIPOS>ATOM
      1 CA         34.2585   23.4892    2.0059 C.3       0 UNK        -0.1979 
      2 C          33.1035   23.9744    1.1432 C.2       0 UNK         0.4864 
      3 O          33.2862   24.1881   -0.0558 O.2       0 UNK        -0.5359 
      4 N          31.9188   24.1453    1.7450 N.am      1 UNK        -0.4318 
      5 CA         30.6935   24.6058    1.0821 C.3       1 UNK         0.0824 
      6 C6         29.5876   24.9959    2.0960 C.3       12 UNK        -0.0944 
      7 S7         29.2333   23.7307    3.3715 S.3       12 UNK        -0.2672 
      8 C8         27.4515   23.9964    3.7047 C.3       12 UNK         0.0333 
      9 C9         27.0531   25.4384    4.0245 C.ar      12 UNK        -0.0807 
     10 C10        27.9512   26.3391    4.6055 C.ar      12 UNK        -0.0894 
     11 C11        27.6070   27.6793    4.7919 C.ar      12 UNK        -0.0804 
     12 C12        26.3152   28.1057    4.4713 C.ar      12 UNK        -0.0824 
     13 C13        25.3828   27.2045    3.9473 C.ar      12 UNK        -0.0762 
     14 C14        25.7607   25.8769    3.7184 C.ar      12 UNK        -0.0782 
     15 C15        23.9704   27.6652    3.6154 C.3       12 UNK         0.0230 
     16 S16        23.6638   27.6938    1.8210 S.3       12 UNK        -0.2608 
     17 C17        24.7874   29.0216    1.2661 C.3       12 UNK        -0.0989 
     18 CA         26.1509   28.4855    0.7619 C.3       5 UNK         0.0716 
     19 N          25.9938   27.4651   -0.2802 N.am      5 UNK        -0.4135 
     20 C          26.9862   26.7205   -0.7812 C.2       4 UNK         0.5031 
     21 O          28.1632   26.8150   -0.4299 O.2       4 UNK        -0.5229 
     22 CA         26.5913   25.6650   -1.8226 C.3       4 UNK         0.0329 
     23 CB         27.4925   25.7305   -3.0679 C.3       4 UNK        -0.2001 
     24 N          26.6973   24.3419   -1.2070 N.am      4 UNK        -0.4303 
     25 C          25.6743   23.7020   -0.6216 C.2       3 UNK         0.5044 
     26 O          24.5243   24.1440   -0.6200 O.2       3 UNK        -0.5152 
     27 CA         25.9429   22.3754    0.1222 C.3       3 UNK         0.0319 
     28 CB         25.0219   21.2407   -0.3749 C.3       3 UNK        -0.2001 
     29 N          27.3502   21.9534    0.1710 N.am      3 UNK        -0.4354 
     30 C          28.1115   21.4600   -0.8186 C.2       2 UNK         0.4964 
     31 O          27.7073   21.2424   -1.9615 O.2       2 UNK        -0.5047 
     32 CA         29.5959   21.2208   -0.4584 C.3       2 UNK         0.0288 
     33 CB         30.4788   20.9463   -1.6947 C.3       2 UNK        -0.2113 
     34 N          30.1644   22.3153    0.3459 N.am      2 UNK        -0.4145 
     35 C          30.1603   23.6202    0.0248 C.2       1 UNK         0.5006 
     36 O          29.7286   24.0571   -1.0415 O.2       1 UNK        -0.5103 
     37 C          27.0475   29.6484    0.2913 C.2       5 UNK         0.5055 
     38 O          26.9604   30.0577   -0.8701 O.2       5 UNK        -0.5220 
     39 N          27.8733   30.1688    1.2040 N.am      6 UNK        -0.4450 
     40 CA         28.8528   31.2233    0.9568 C.3       6 UNK         0.0367 
     41 CB         30.1126   30.6060    0.3128 C.3       6 UNK        -0.1929 
     42 C          29.1636   31.9423    2.2794 C.2       6 UNK         0.5070 
     43 O          28.4523   31.7452    3.2684 O.2       6 UNK        -0.5237 
     44 N          30.2223   32.7619    2.2787 N.am      7 UNK        -0.4739 
     45 CA         30.8187   33.3397    3.4849 C.3       7 UNK         0.0276 
     46 CB         31.7240   34.5145    3.0808 C.3       7 UNK        -0.1927 
     47 C          31.6336   32.2779    4.2416 C.2       7 UNK         0.5013 
     48 O          32.1840   31.3734    3.6087 O.2       7 UNK        -0.5193 
     49 N          31.7444   32.4323    5.5689 N.am      8 UNK        -0.4253 
     50 CA         32.3830   31.4826    6.4935 C.3       8 UNK         0.0242 
     51 CB         32.3585   32.0611    7.9172 C.3       8 UNK        -0.2000 
     52 C          33.8137   31.0518    6.1165 C.2       8 UNK         0.4948 
     53 O          34.1738   29.8941    6.3347 O.2       8 UNK        -0.5275 
     54 N          34.5834   31.9733    5.5204 N.am      9 UNK        -0.4246 
     55 CA         35.9302   31.7305    4.9971 C.3       9 UNK         0.0261 
     56 CB         36.5713   33.0738    4.6120 C.3       9 UNK        -0.1959 
     57 C          35.9715   30.7545    3.8049 C.2       9 UNK         0.5033 
     58 O          36.9895   30.0854    3.6213 O.2       9 UNK        -0.5390 
     59 N          34.8851   30.6862    3.0229 N.am      10 UNK        -0.4215 
     60 CA         34.7133   29.7337    1.9256 C.3       10 UNK         0.0240 
     61 CB         33.8904   30.3838    0.8022 C.3       10 UNK        -0.1982 
     62 C          34.0513   28.4355    2.4131 C.2       10 UNK         0.4970 
     63 O          34.4096   27.3655    1.9203 O.2       10 UNK        -0.4916 
     64 N          33.1175   28.5437    3.3701 N.am      11 UNK        -0.4279 
     65 CA         32.4643   27.4022    4.0315 C.3       11 UNK         0.1003 
     66 C          33.4514   26.4837    4.8016 C.2       11 UNK         0.5709 
     67 N          34.4075   27.0404    5.5359 N.am      11 UNK        -0.7358 
     68 O          33.3421   25.2623    4.7323 O.2       11 UNK        -0.4999 
     69 C69        31.3202   27.8415    4.9787 C.3       12 UNK        -0.0954 
     70 S70        30.0364   28.8342    4.1524 S.3       12 UNK        -0.2268 
     71 C71        28.6416   28.6662    5.3128 C.3       12 UNK         0.0203 
     72 H72        33.9194   23.1521    2.9855 H         1 UNK         0.0888 
     73 H73        34.9752   24.2969    2.1547 H         1 UNK         0.0888 
     74 H74        34.7713   22.6586    1.5213 H         1 UNK         0.0888 
     75 H75        31.8328   23.9619    2.7358 H         1 UNK         0.3017 
     76 H76        30.9566   25.5152    0.5364 H         1 UNK         0.0873 
     77 H77        29.8857   25.9116    2.6070 H         1 UNK         0.0745 
     78 H78        28.6610   25.2483    1.5781 H         1 UNK         0.0745 
     79 H79        26.8941   23.6505    2.8352 H         1 UNK         0.0705 
     80 H80        27.1542   23.3588    4.5380 H         1 UNK         0.0705 
     81 H81        28.9437   26.0095    4.8695 H         1 UNK         0.1334 
     82 H82        26.0373   29.1398    4.6246 H         1 UNK         0.1417 
     83 H83        25.0462   25.1898    3.2851 H         1 UNK         0.1562 
     84 H84        23.7698   28.6529    4.0335 H         1 UNK         0.0748 
     85 H85        23.2555   26.9867    4.0830 H         1 UNK         0.0748 
     86 H86        24.9302   29.7329    2.0819 H         1 UNK         0.0940 
     87 H87        24.2805   29.5749    0.4727 H         1 UNK         0.0940 
     88 H88        26.6599   27.9964    1.5944 H         1 UNK         0.0703 
     89 H89        25.0510   27.3105   -0.6054 H         1 UNK         0.3081 
     90 H90        25.5668   25.8499   -2.1529 H         1 UNK         0.0719 
     91 H91        28.5442   25.5823   -2.8218 H         1 UNK         0.0809 
     92 H92        27.2116   24.9732   -3.7998 H         1 UNK         0.0809 
     93 H93        27.4086   26.7026   -3.5553 H         1 UNK         0.0809 
     94 H94        27.6359   23.9632   -1.1384 H         1 UNK         0.2990 
     95 H95        25.6656   22.5672    1.1590 H         1 UNK         0.0690 
     96 H96        25.2017   20.3139    0.1698 H         1 UNK         0.0788 
     97 H97        25.1574   21.0396   -1.4377 H         1 UNK         0.0788 
     98 H98        23.9723   21.5002   -0.2308 H         1 UNK         0.0788 
     99 H99        27.8058   22.1009    1.0610 H         1 UNK         0.2993 
    100 H100       29.6165   20.3274    0.1677 H         1 UNK         0.0949 
    101 H101       30.1300   20.0671   -2.2379 H         1 UNK         0.0767 
    102 H102       30.4703   21.7847   -2.3922 H         1 UNK         0.0767 
    103 H103       31.5139   20.7603   -1.4085 H         1 UNK         0.0767 
    104 H104       30.5317   22.0583    1.2520 H         1 UNK         0.3013 
    105 H105       27.8449   29.8496    2.1650 H         1 UNK         0.3121 
    106 H106       28.4217   31.9618    0.2781 H         1 UNK         0.0774 
    107 H107       29.8657   30.0380   -0.5841 H         1 UNK         0.0815 
    108 H108       30.6185   29.9289    1.0028 H         1 UNK         0.0815 
    109 H109       30.8272   31.3716    0.0113 H         1 UNK         0.0815 
    110 H110       30.7653   32.8431    1.4321 H         1 UNK         0.2987 
    111 H111       30.0210   33.7080    4.1340 H         1 UNK         0.0949 
    112 H112       32.5473   34.1902    2.4425 H         1 UNK         0.0806 
    113 H113       31.1640   35.2794    2.5426 H         1 UNK         0.0806 
    114 H114       32.1611   34.9936    3.9578 H         1 UNK         0.0806 
    115 H115       31.2840   33.2231    5.9965 H         1 UNK         0.3010 
    116 H116       31.7654   30.5841    6.4892 H         1 UNK         0.0829 
    117 H117       31.3387   32.2502    8.2527 H         1 UNK         0.0813 
    118 H118       32.9143   32.9973    7.9829 H         1 UNK         0.0813 
    119 H119       32.8059   31.3657    8.6291 H         1 UNK         0.0813 
    120 H120       34.1993   32.8967    5.3829 H         1 UNK         0.3038 
    121 H121       36.5223   31.2867    5.8004 H         1 UNK         0.0769 
    122 H122       36.0091   33.5797    3.8261 H         1 UNK         0.0811 
    123 H123       37.5878   32.9292    4.2433 H         1 UNK         0.0811 
    124 H124       36.6328   33.7454    5.4686 H         1 UNK         0.0811 
    125 H125       34.0587   31.2197    3.2791 H         1 UNK         0.3204 
    126 H126       35.6895   29.4715    1.5117 H         1 UNK         0.0748 
    127 H127       34.4062   31.2492    0.3857 H         1 UNK         0.0771 
    128 H128       33.7192   29.6822   -0.0154 H         1 UNK         0.0771 
    129 H129       32.9166   30.7168    1.1580 H         1 UNK         0.0771 
    130 H130       32.8227   29.4661    3.6706 H         1 UNK         0.2980 
    131 H131       32.0234   26.7959    3.2390 H         1 UNK         0.0545 
    132 H132       35.0518   26.4508    6.0370 H         1 UNK         0.3459 
    133 H133       34.4401   28.0478    5.6591 H         1 UNK         0.3459 
    134 H134       30.8517   26.9645    5.4256 H         1 UNK         0.0616 
    135 H135       31.7182   28.4218    5.8109 H         1 UNK         0.0616 
    136 H136       28.1956   29.6524    5.4500 H         1 UNK         0.0634 
    137 H137       28.9955   28.3504    6.2950 H         1 UNK         0.0634 
@<TRIPOS>BOND
     1    1    2 1    
     2    1   72 1    
     3    1   73 1    
     4    1   74 1    
     5    2    3 2    
     6    2    4 am   BACKBONE|DICT|INTERRES
     7    4    5 1    
     8    4   75 1    
     9    5    6 1    
    10    5   35 1    
    11    5   76 1    
    12    6    7 1    
    13    6   77 1    
    14    6   78 1    
    15    7    8 1    
    16    8    9 1    
    17    8   79 1    
    18    8   80 1    
    19    9   10 ar   
    20    9   14 ar   
    21   10   11 ar   
    22   10   81 1    
    23   11   12 ar   
    24   11   71 1    
    25   12   13 ar   
    26   12   82 1    
    27   13   14 ar   
    28   13   15 1    
    29   14   83 1    
    30   15   16 1    
    31   15   84 1    
    32   15   85 1    
    33   16   17 1    
    34   17   18 1    
    35   17   86 1    
    36   17   87 1    
    37   18   19 1    
    38   18   37 1    
    39   18   88 1    
    40   19   20 am   BACKBONE|DICT|INTERRES
    41   19   89 1    
    42   20   21 2    
    43   20   22 1    
    44   22   23 1    
    45   22   24 1    
    46   22   90 1    
    47   23   91 1    
    48   23   92 1    
    49   23   93 1    
    50   24   25 am   BACKBONE|DICT|INTERRES
    51   24   94 1    
    52   25   26 2    
    53   25   27 1    
    54   27   28 1    
    55   27   29 1    
    56   27   95 1    
    57   28   96 1    
    58   28   97 1    
    59   28   98 1    
    60   29   30 am   BACKBONE|DICT|INTERRES
    61   29   99 1    
    62   30   31 2    
    63   30   32 1    
    64   32   33 1    
    65   32   34 1    
    66   32  100 1    
    67   33  101 1    
    68   33  102 1    
    69   33  103 1    
    70   34   35 am   BACKBONE|DICT|INTERRES
    71   34  104 1    
    72   35   36 2    
    73   37   38 2    
    74   37   39 am   BACKBONE|DICT|INTERRES
    75   39   40 1    
    76   39  105 1    
    77   40   41 1    
    78   40   42 1    
    79   40  106 1    
    80   41  107 1    
    81   41  108 1    
    82   41  109 1    
    83   42   43 2    
    84   42   44 am   BACKBONE|DICT|INTERRES
    85   44   45 1    
    86   44  110 1    
    87   45   46 1    
    88   45   47 1    
    89   45  111 1    
    90   46  112 1    
    91   46  113 1    
    92   46  114 1    
    93   47   48 2    
    94   47   49 am   BACKBONE|DICT|INTERRES
    95   49   50 1    
    96   49  115 1    
    97   50   51 1    
    98   50   52 1    
    99   50  116 1    
   100   51  117 1    
   101   51  118 1    
   102   51  119 1    
   103   52   53 2    
   104   52   54 am   BACKBONE|DICT|INTERRES
   105   54   55 1    
   106   54  120 1    
   107   55   56 1    
   108   55   57 1    
   109   55  121 1    
   110   56  122 1    
   111   56  123 1    
   112   56  124 1    
   113   57   58 2    
   114   57   59 am   BACKBONE|DICT|INTERRES
   115   59   60 1    
   116   59  125 1    
   117   60   61 1    
   118   60   62 1    
   119   60  126 1    
   120   61  127 1    
   121   61  128 1    
   122   61  129 1    
   123   62   63 2    
   124   62   64 am   BACKBONE|DICT|INTERRES
   125   64   65 1    
   126   64  130 1    
   127   65   66 1    
   128   65   69 1    
   129   65  131 1    
   130   66   67 am   BACKBONE|DICT|INTERRES
   131   66   68 2    
   132   67  132 1    
   133   67  133 1    
   134   69   70 1    
   135   69  134 1    
   136   69  135 1    
   137   70   71 1    
   138   71  136 1    
   139   71  137 1    
@<TRIPOS>SUBSTRUCTURE
     1 UNK         1 GROUP             0       ****    0 ROOT    
