@<TRIPOS>MOLECULE
3R136
137   139    1
SMALL
USER_CHARGES


@<TRIPOS>ATOM
      1 CA         29.2383   23.2430    2.5842 C.3       0 UNK        -0.1979 
      2 C          28.9238   24.6935    2.2531 C.2       0 UNK         0.4864 
      3 O          28.2443   24.9514    1.2594 O.2       0 UNK        -0.5359 
      4 N          29.4107   25.6351    3.0720 N.am      1 UNK        -0.4318 
      5 CA         29.1107   27.0675    2.9752 C.3       1 UNK         0.0824 
      6 C6         30.0873   27.9226    3.8325 C.3       12 UNK        -0.0944 
      7 S7         31.2864   28.8252    2.7922 S.3       12 UNK        -0.2672 
      8 C8         32.8334   27.9172    3.0900 C.3       12 UNK         0.0333 
      9 C9         32.7420   26.4848    2.5965 C.ar      12 UNK        -0.0807 
     10 C10        32.8954   25.4234    3.4871 C.ar      12 UNK        -0.0894 
     11 C11        32.8136   24.1046    3.0377 C.ar      12 UNK        -0.0804 
     12 C12        32.5006   23.8580    1.6949 C.ar      12 UNK        -0.0824 
     13 C13        32.2871   24.9129    0.7982 C.ar      12 UNK        -0.0762 
     14 C14        32.4699   26.2245    1.2527 C.ar      12 UNK        -0.0782 
     15 C15        31.8108   24.5811   -0.6214 C.3       12 UNK         0.0230 
     16 S16        31.6115   25.9848   -1.7828 S.3       12 UNK        -0.2608 
     17 C17        30.2240   26.9396   -1.0713 C.3       12 UNK        -0.0989 
     18 CA         28.8989   26.7359   -1.8407 C.3       5 UNK         0.0716 
     19 N          28.2806   25.4593   -1.5061 N.am      5 UNK        -0.4135 
     20 C          27.5753   24.7022   -2.3518 C.2       4 UNK         0.5031 
     21 O          27.5357   24.8728   -3.5713 O.2       4 UNK        -0.5229 
     22 CA         26.7316   23.5889   -1.7119 C.3       4 UNK         0.0329 
     23 CB         27.6039   22.3680   -1.3760 C.3       4 UNK        -0.2001 
     24 N          26.0493   24.0510   -0.5001 N.am      4 UNK        -0.4303 
     25 C          25.0461   24.9394   -0.4685 C.2       3 UNK         0.5044 
     26 O          24.5312   25.4314   -1.4734 O.2       3 UNK        -0.5152 
     27 CA         24.5230   25.3483    0.9143 C.3       3 UNK         0.0319 
     28 CB         24.7258   24.2683    2.0020 C.3       3 UNK        -0.2001 
     29 N          25.1598   26.6010    1.3116 N.am      3 UNK        -0.4354 
     30 C          24.6968   27.4388    2.2487 C.2       2 UNK         0.4964 
     31 O          23.6187   27.2848    2.8271 O.2       2 UNK        -0.5047 
     32 CA         25.6001   28.6370    2.6130 C.3       2 UNK         0.0288 
     33 CB         25.2005   29.3243    3.9358 C.3       2 UNK        -0.2113 
     34 N          27.0245   28.2893    2.6253 N.am      2 UNK        -0.4145 
     35 C          27.6332   27.3285    3.3337 C.2       1 UNK         0.5006 
     36 O          27.0890   26.6633    4.2202 O.2       1 UNK        -0.5103 
     37 C          27.8766   27.8299   -1.4819 C.2       5 UNK         0.5055 
     38 O          27.2596   27.7609   -0.4150 O.2       5 UNK        -0.5220 
     39 N          27.7164   28.8151   -2.3755 N.am      6 UNK        -0.4450 
     40 CA         26.7758   29.9306   -2.2167 C.3       6 UNK         0.0367 
     41 CB         26.4814   30.5424   -3.5963 C.3       6 UNK        -0.1929 
     42 C          27.2694   31.0164   -1.2432 C.2       6 UNK         0.5070 
     43 O          26.4488   31.7629   -0.7080 O.2       6 UNK        -0.5237 
     44 N          28.5913   31.0945   -1.0387 N.am      7 UNK        -0.4739 
     45 CA         29.2414   31.9574   -0.0486 C.3       7 UNK         0.0276 
     46 CB         30.7501   31.9925   -0.3490 C.3       7 UNK        -0.1927 
     47 C          28.9943   31.4592    1.3864 C.2       7 UNK         0.5013 
     48 O          28.5864   30.3111    1.5689 O.2       7 UNK        -0.5193 
     49 N          29.2821   32.3158    2.3728 N.am      8 UNK        -0.4253 
     50 CA         29.2728   31.9831    3.7961 C.3       8 UNK         0.0242 
     51 CB         28.1617   32.7751    4.5055 C.3       8 UNK        -0.2000 
     52 C          30.6541   32.3229    4.3699 C.2       8 UNK         0.4948 
     53 O          31.1178   33.4520    4.1922 O.2       8 UNK        -0.5275 
     54 N          31.2797   31.3456    5.0325 N.am      9 UNK        -0.4246 
     55 CA         32.6284   31.3606    5.5967 C.3       9 UNK         0.0261 
     56 CB         33.6865   31.5376    4.4832 C.3       9 UNK        -0.1959 
     57 C          32.8328   30.0310    6.3438 C.2       9 UNK         0.5033 
     58 O          31.9271   29.1914    6.3562 O.2       9 UNK        -0.5390 
     59 N          34.0155   29.8502    6.9430 N.am      10 UNK        -0.4215 
     60 CA         34.4482   28.5862    7.5441 C.3       10 UNK         0.0240 
     61 CB         35.4961   28.8831    8.6301 C.3       10 UNK        -0.1982 
     62 C          35.0349   27.6451    6.4768 C.2       10 UNK         0.4970 
     63 O          35.5911   28.1194    5.4837 O.2       10 UNK        -0.4916 
     64 N          34.9328   26.3328    6.7222 N.am      11 UNK        -0.4279 
     65 CA         35.5187   25.2718    5.8813 C.3       11 UNK         0.1003 
     66 C          37.0591   25.0976    6.0483 C.2       11 UNK         0.5709 
     67 N          37.6868   25.6762    7.0661 N.am      11 UNK        -0.7358 
     68 O          37.7019   24.4415    5.2328 O.2       11 UNK        -0.4999 
     69 C69        34.7480   23.9330    6.0733 C.3       12 UNK        -0.0954 
     70 S70        34.7502   22.8507    4.5980 S.3       12 UNK        -0.2268 
     71 C71        33.0246   22.9517    4.0108 C.3       12 UNK         0.0203 
     72 H72        28.3183   22.7041    2.8082 H         1 UNK         0.0888 
     73 H73        29.7172   22.7598    1.7335 H         1 UNK         0.0888 
     74 H74        29.9018   23.1559    3.4440 H         1 UNK         0.0888 
     75 H75        29.9603   25.3585    3.8708 H         1 UNK         0.3017 
     76 H76        29.2188   27.3468    1.9261 H         1 UNK         0.0873 
     77 H77        30.6196   27.3149    4.5661 H         1 UNK         0.0745 
     78 H78        29.5594   28.6716    4.4243 H         1 UNK         0.0745 
     79 H79        33.0697   27.9523    4.1532 H         1 UNK         0.0705 
     80 H80        33.6503   28.4225    2.5736 H         1 UNK         0.0705 
     81 H81        33.0828   25.6263    4.5307 H         1 UNK         0.1334 
     82 H82        32.3911   22.8383    1.3513 H         1 UNK         0.1417 
     83 H83        32.3489   27.0658    0.5876 H         1 UNK         0.1562 
     84 H84        30.8560   24.0570   -0.5555 H         1 UNK         0.0748 
     85 H85        32.5165   23.8789   -1.0673 H         1 UNK         0.0748 
     86 H86        30.5241   27.9895   -1.0847 H         1 UNK         0.0940 
     87 H87        30.0915   26.6791   -0.0222 H         1 UNK         0.0940 
     88 H88        29.1024   26.7844   -2.9128 H         1 UNK         0.0703 
     89 H89        28.2056   25.2657   -0.5072 H         1 UNK         0.3081 
     90 H90        25.9727   23.2825   -2.4349 H         1 UNK         0.0719 
     91 H91        28.1147   21.9978   -2.2660 H         1 UNK         0.0809 
     92 H92        28.3692   22.6074   -0.6364 H         1 UNK         0.0809 
     93 H93        27.0030   21.5476   -0.9833 H         1 UNK         0.0809 
     94 H94        26.4629   23.7795    0.3819 H         1 UNK         0.2990 
     95 H95        23.4505   25.5210    0.8020 H         1 UNK         0.0690 
     96 H96        24.1791   24.5206    2.9107 H         1 UNK         0.0788 
     97 H97        25.7746   24.1546    2.2773 H         1 UNK         0.0788 
     98 H98        24.3572   23.2968    1.6697 H         1 UNK         0.0788 
     99 H99        26.0215   26.8422    0.8245 H         1 UNK         0.2993 
    100 H100       25.4767   29.3644    1.8088 H         1 UNK         0.0949 
    101 H101       25.2576   28.6376    4.7809 H         1 UNK         0.0767 
    102 H102       25.8480   30.1748    4.1495 H         1 UNK         0.0767 
    103 H103       24.1777   29.6999    3.8885 H         1 UNK         0.0767 
    104 H104       27.5978   28.8376    1.9827 H         1 UNK         0.3013 
    105 H105       28.2533   28.7945   -3.2312 H         1 UNK         0.3121 
    106 H106       25.8398   29.5363   -1.8141 H         1 UNK         0.0774 
    107 H107       25.7590   31.3559   -3.5154 H         1 UNK         0.0815 
    108 H108       27.3808   30.9512   -4.0585 H         1 UNK         0.0815 
    109 H109       26.0580   29.8033   -4.2767 H         1 UNK         0.0815 
    110 H110       29.1793   30.4195   -1.5023 H         1 UNK         0.2987 
    111 H111       28.8309   32.9653   -0.1414 H         1 UNK         0.0949 
    112 H112       30.9461   32.3418   -1.3629 H         1 UNK         0.0806 
    113 H113       31.2731   32.6678    0.3293 H         1 UNK         0.0806 
    114 H114       31.2050   31.0068   -0.2382 H         1 UNK         0.0806 
    115 H115       29.6745   33.2199    2.1469 H         1 UNK         0.3010 
    116 H116       29.0796   30.9189    3.9407 H         1 UNK         0.0829 
    117 H117       27.1812   32.5288    4.0977 H         1 UNK         0.0813 
    118 H118       28.1383   32.5441    5.5712 H         1 UNK         0.0813 
    119 H119       28.3047   33.8519    4.4064 H         1 UNK         0.0813 
    120 H120       30.8305   30.4439    5.1517 H         1 UNK         0.3038 
    121 H121       32.7006   32.1785    6.3159 H         1 UNK         0.0769 
    122 H122       34.7000   31.5309    4.8845 H         1 UNK         0.0811 
    123 H123       33.5681   32.4850    3.9582 H         1 UNK         0.0811 
    124 H124       33.6251   30.7399    3.7427 H         1 UNK         0.0811 
    125 H125       34.7207   30.5674    6.8537 H         1 UNK         0.3204 
    126 H126       33.5905   28.0988    8.0134 H         1 UNK         0.0748 
    127 H127       35.8085   27.9686    9.1359 H         1 UNK         0.0771 
    128 H128       36.3910   29.3481    8.2138 H         1 UNK         0.0771 
    129 H129       35.0962   29.5508    9.3937 H         1 UNK         0.0771 
    130 H130       34.4848   26.0259    7.5733 H         1 UNK         0.2980 
    131 H131       35.3835   25.5870    4.8454 H         1 UNK         0.0545 
    132 H132       38.6840   25.5616    7.1574 H         1 UNK         0.3459 
    133 H133       37.1778   26.2207    7.7423 H         1 UNK         0.3459 
    134 H134       35.1534   23.3701    6.9161 H         1 UNK         0.0616 
    135 H135       33.7096   24.1317    6.3410 H         1 UNK         0.0616 
    136 H136       32.3382   23.0439    4.8532 H         1 UNK         0.0634 
    137 H137       32.7786   22.0048    3.5279 H         1 UNK         0.0634 
@<TRIPOS>BOND
     1    1    2 1    
     2    1   72 1    
     3    1   73 1    
     4    1   74 1    
     5    2    3 2    
     6    2    4 am   BACKBONE|DICT|INTERRES
     7    4    5 1    
     8    4   75 1    
     9    5    6 1    
    10    5   35 1    
    11    5   76 1    
    12    6    7 1    
    13    6   77 1    
    14    6   78 1    
    15    7    8 1    
    16    8    9 1    
    17    8   79 1    
    18    8   80 1    
    19    9   10 ar   
    20    9   14 ar   
    21   10   11 ar   
    22   10   81 1    
    23   11   12 ar   
    24   11   71 1    
    25   12   13 ar   
    26   12   82 1    
    27   13   14 ar   
    28   13   15 1    
    29   14   83 1    
    30   15   16 1    
    31   15   84 1    
    32   15   85 1    
    33   16   17 1    
    34   17   18 1    
    35   17   86 1    
    36   17   87 1    
    37   18   19 1    
    38   18   37 1    
    39   18   88 1    
    40   19   20 am   BACKBONE|DICT|INTERRES
    41   19   89 1    
    42   20   21 2    
    43   20   22 1    
    44   22   23 1    
    45   22   24 1    
    46   22   90 1    
    47   23   91 1    
    48   23   92 1    
    49   23   93 1    
    50   24   25 am   BACKBONE|DICT|INTERRES
    51   24   94 1    
    52   25   26 2    
    53   25   27 1    
    54   27   28 1    
    55   27   29 1    
    56   27   95 1    
    57   28   96 1    
    58   28   97 1    
    59   28   98 1    
    60   29   30 am   BACKBONE|DICT|INTERRES
    61   29   99 1    
    62   30   31 2    
    63   30   32 1    
    64   32   33 1    
    65   32   34 1    
    66   32  100 1    
    67   33  101 1    
    68   33  102 1    
    69   33  103 1    
    70   34   35 am   BACKBONE|DICT|INTERRES
    71   34  104 1    
    72   35   36 2    
    73   37   38 2    
    74   37   39 am   BACKBONE|DICT|INTERRES
    75   39   40 1    
    76   39  105 1    
    77   40   41 1    
    78   40   42 1    
    79   40  106 1    
    80   41  107 1    
    81   41  108 1    
    82   41  109 1    
    83   42   43 2    
    84   42   44 am   BACKBONE|DICT|INTERRES
    85   44   45 1    
    86   44  110 1    
    87   45   46 1    
    88   45   47 1    
    89   45  111 1    
    90   46  112 1    
    91   46  113 1    
    92   46  114 1    
    93   47   48 2    
    94   47   49 am   BACKBONE|DICT|INTERRES
    95   49   50 1    
    96   49  115 1    
    97   50   51 1    
    98   50   52 1    
    99   50  116 1    
   100   51  117 1    
   101   51  118 1    
   102   51  119 1    
   103   52   53 2    
   104   52   54 am   BACKBONE|DICT|INTERRES
   105   54   55 1    
   106   54  120 1    
   107   55   56 1    
   108   55   57 1    
   109   55  121 1    
   110   56  122 1    
   111   56  123 1    
   112   56  124 1    
   113   57   58 2    
   114   57   59 am   BACKBONE|DICT|INTERRES
   115   59   60 1    
   116   59  125 1    
   117   60   61 1    
   118   60   62 1    
   119   60  126 1    
   120   61  127 1    
   121   61  128 1    
   122   61  129 1    
   123   62   63 2    
   124   62   64 am   BACKBONE|DICT|INTERRES
   125   64   65 1    
   126   64  130 1    
   127   65   66 1    
   128   65   69 1    
   129   65  131 1    
   130   66   67 am   BACKBONE|DICT|INTERRES
   131   66   68 2    
   132   67  132 1    
   133   67  133 1    
   134   69   70 1    
   135   69  134 1    
   136   69  135 1    
   137   70   71 1    
   138   71  136 1    
   139   71  137 1    
@<TRIPOS>SUBSTRUCTURE
     1 UNK         1 GROUP             0       ****    0 ROOT    
