@<TRIPOS>MOLECULE
3R136
137   139    1
SMALL
USER_CHARGES


@<TRIPOS>ATOM
      1 CA         27.7675   21.5392    5.8134 C.3       0 UNK        -0.1979 
      2 C          27.8107   22.0111    4.3675 C.2       0 UNK         0.4864 
      3 O          27.7253   23.2136    4.1194 O.2       0 UNK        -0.5359 
      4 N          27.9453   21.0712    3.4211 N.am      1 UNK        -0.4318 
      5 CA         28.0030   21.2896    1.9686 C.3       1 UNK         0.0824 
      6 C6         29.2708   22.0616    1.4963 C.3       12 UNK        -0.0944 
      7 S7         30.8244   21.3215    2.1067 S.3       12 UNK        -0.2672 
      8 C8         31.5980   22.7481    2.9498 C.3       12 UNK         0.0333 
      9 C9         32.4747   23.6225    2.0488 C.ar      12 UNK        -0.0807 
     10 C10        33.5880   24.2603    2.6072 C.ar      12 UNK        -0.0894 
     11 C11        34.4501   25.0262    1.8164 C.ar      12 UNK        -0.0804 
     12 C12        34.1870   25.1645    0.4506 C.ar      12 UNK        -0.0824 
     13 C13        33.0704   24.5494   -0.1224 C.ar      12 UNK        -0.0762 
     14 C14        32.2139   23.7922    0.6818 C.ar      12 UNK        -0.0782 
     15 C15        32.8313   24.6486   -1.6229 C.3       12 UNK         0.0230 
     16 S16        32.1878   26.2748   -2.1204 S.3       12 UNK        -0.2608 
     17 C17        30.4192   26.1372   -1.6925 C.3       12 UNK        -0.0989 
     18 CA         29.8362   27.5029   -1.2511 C.3       5 UNK         0.0716 
     19 N          28.3959   27.5966   -1.4982 N.am      5 UNK        -0.4135 
     20 C          27.8046   28.5665   -2.2124 C.2       4 UNK         0.5031 
     21 O          28.4151   29.4501   -2.8157 O.2       4 UNK        -0.5229 
     22 CA         26.2644   28.5655   -2.2712 C.3       4 UNK         0.0329 
     23 CB         25.7765   27.8392   -3.5353 C.3       4 UNK        -0.2001 
     24 N          25.6368   27.9581   -1.0969 N.am      4 UNK        -0.4303 
     25 C          25.7135   28.4367    0.1532 C.2       3 UNK         0.5044 
     26 O          26.2254   29.5186    0.4397 O.2       3 UNK        -0.5152 
     27 CA         25.1486   27.5480    1.2781 C.3       3 UNK         0.0319 
     28 CB         23.7956   28.0930    1.7630 C.3       3 UNK        -0.2001 
     29 N          24.9987   26.1265    0.9340 N.am      3 UNK        -0.4354 
     30 C          25.9909   25.3016    0.5727 C.2       2 UNK         0.4964 
     31 O          27.1590   25.6610    0.3864 O.2       2 UNK        -0.5047 
     32 CA         25.6102   23.8401    0.3279 C.3       2 UNK         0.0288 
     33 CB         25.3170   23.5961   -1.1620 C.3       2 UNK        -0.2113 
     34 N          26.7425   23.0242    0.7454 N.am      2 UNK        -0.4145 
     35 C          26.6734   21.8952    1.4598 C.2       1 UNK         0.5006 
     36 O          25.6132   21.3254    1.7319 O.2       1 UNK        -0.5103 
     37 C          30.1405   27.8094    0.2249 C.2       5 UNK         0.5055 
     38 O          31.0416   28.6019    0.4996 O.2       5 UNK        -0.5220 
     39 N          29.3773   27.2118    1.1503 N.am      6 UNK        -0.4450 
     40 CA         29.4993   27.4173    2.5925 C.3       6 UNK         0.0367 
     41 CB         28.9322   26.1863    3.3189 C.3       6 UNK        -0.1929 
     42 C          28.8034   28.7215    3.0165 C.2       6 UNK         0.5070 
     43 O          27.7423   28.6893    3.6440 O.2       6 UNK        -0.5237 
     44 N          29.4107   29.8554    2.6534 N.am      7 UNK        -0.4739 
     45 CA         28.9761   31.2146    2.9767 C.3       7 UNK         0.0276 
     46 CB         29.6761   32.1910    2.0142 C.3       7 UNK        -0.1927 
     47 C          29.2326   31.5517    4.4592 C.2       7 UNK         0.5013 
     48 O          30.0721   32.4006    4.7705 O.2       7 UNK        -0.5193 
     49 N          28.5161   30.8507    5.3490 N.am      8 UNK        -0.4253 
     50 CA         28.6355   30.8781    6.8084 C.3       8 UNK         0.0242 
     51 CB         28.1581   32.2346    7.3781 C.3       8 UNK        -0.2000 
     52 C          30.0544   30.4662    7.2418 C.2       8 UNK         0.4948 
     53 O          30.4023   29.2922    7.1079 O.2       8 UNK        -0.5275 
     54 N          30.8450   31.4260    7.7368 N.am      9 UNK        -0.4246 
     55 CA         32.2400   31.2308    8.1325 C.3       9 UNK         0.0261 
     56 CB         32.6311   32.3329    9.1317 C.3       9 UNK        -0.1959 
     57 C          33.2225   31.2103    6.9456 C.2       9 UNK         0.5033 
     58 O          34.3492   30.7444    7.1263 O.2       9 UNK        -0.5390 
     59 N          32.8167   31.7302    5.7784 N.am      10 UNK        -0.4215 
     60 CA         33.6496   31.8080    4.5778 C.3       10 UNK         0.0240 
     61 CB         33.3614   33.1376    3.8589 C.3       10 UNK        -0.1982 
     62 C          33.3864   30.6190    3.6422 C.2       10 UNK         0.4970 
     63 O          32.3214   30.0025    3.7046 O.2       10 UNK        -0.4916 
     64 N          34.3595   30.3557    2.7661 N.am      11 UNK        -0.4279 
     65 CA         34.2763   29.3856    1.6699 C.3       11 UNK         0.1003 
     66 C          34.2745   30.1694    0.3350 C.2       11 UNK         0.5709 
     67 N          33.2294   30.0422   -0.4667 N.am      11 UNK        -0.7358 
     68 O          35.2259   30.8818    0.0179 O.2       11 UNK        -0.4999 
     69 C69        35.4504   28.3752    1.7161 C.3       12 UNK        -0.0954 
     70 S70        35.3658   27.2796    3.1720 S.3       12 UNK        -0.2268 
     71 C71        35.6952   25.6489    2.4337 C.3       12 UNK         0.0203 
     72 H72        27.8605   20.4562    5.8928 H         1 UNK         0.0888 
     73 H73        28.5818   21.9916    6.3787 H         1 UNK         0.0888 
     74 H74        26.8259   21.8341    6.2756 H         1 UNK         0.0888 
     75 H75        27.9858   20.1019    3.7028 H         1 UNK         0.3017 
     76 H76        28.0524   20.2941    1.5243 H         1 UNK         0.0873 
     77 H77        29.2258   23.1070    1.8057 H         1 UNK         0.0745 
     78 H78        29.3213   22.0636    0.4059 H         1 UNK         0.0745 
     79 H79        30.8369   23.3616    3.4323 H         1 UNK         0.0705 
     80 H80        32.2091   22.3431    3.7579 H         1 UNK         0.0705 
     81 H81        33.8012   24.1422    3.6611 H         1 UNK         0.1334 
     82 H82        34.8597   25.7340   -0.1754 H         1 UNK         0.1417 
     83 H83        31.3635   23.3090    0.2260 H         1 UNK         0.1562 
     84 H84        32.1520   23.8665   -1.9659 H         1 UNK         0.0748 
     85 H85        33.7743   24.4756   -2.1438 H         1 UNK         0.0748 
     86 H86        30.2600   25.3665   -0.9360 H         1 UNK         0.0940 
     87 H87        29.9062   25.7839   -2.5886 H         1 UNK         0.0940 
     88 H88        30.3396   28.2790   -1.8320 H         1 UNK         0.0703 
     89 H89        27.8113   26.9242   -1.0138 H         1 UNK         0.3081 
     90 H90        25.9372   29.6061   -2.3240 H         1 UNK         0.0719 
     91 H91        26.2079   28.2860   -4.4324 H         1 UNK         0.0809 
     92 H92        26.0561   26.7848   -3.5302 H         1 UNK         0.0809 
     93 H93        24.6926   27.9000   -3.6355 H         1 UNK         0.0809 
     94 H94        25.1741   27.0719   -1.2349 H         1 UNK         0.2990 
     95 H95        25.8540   27.6035    2.1088 H         1 UNK         0.0690 
     96 H96        23.8804   29.1393    2.0608 H         1 UNK         0.0788 
     97 H97        23.4328   27.5420    2.6308 H         1 UNK         0.0788 
     98 H98        23.0345   28.0362    0.9837 H         1 UNK         0.0788 
     99 H99        24.0683   25.7449    1.0322 H         1 UNK         0.2993 
    100 H100       24.7273   23.5976    0.9239 H         1 UNK         0.0949 
    101 H101       25.0681   22.5511   -1.3479 H         1 UNK         0.0767 
    102 H102       24.4702   24.1953   -1.4992 H         1 UNK         0.0767 
    103 H103       26.1718   23.8519   -1.7899 H         1 UNK         0.0767 
    104 H104       27.6396   23.4731    0.6189 H         1 UNK         0.3013 
    105 H105       28.6168   26.6034    0.8555 H         1 UNK         0.3121 
    106 H106       30.5567   27.5015    2.8557 H         1 UNK         0.0774 
    107 H107       29.0288   26.2916    4.4001 H         1 UNK         0.0815 
    108 H108       27.8747   26.0333    3.1004 H         1 UNK         0.0815 
    109 H109       29.4641   25.2800    3.0334 H         1 UNK         0.0815 
    110 H110       30.2914   29.7685    2.1577 H         1 UNK         0.2987 
    111 H111       27.8997   31.2864    2.8047 H         1 UNK         0.0949 
    112 H112       29.4018   33.2238    2.2331 H         1 UNK         0.0806 
    113 H113       30.7616   32.1158    2.0851 H         1 UNK         0.0806 
    114 H114       29.3958   31.9929    0.9794 H         1 UNK         0.0806 
    115 H115       27.9372   30.1068    4.9669 H         1 UNK         0.3010 
    116 H116       27.9642   30.1068    7.1894 H         1 UNK         0.0829 
    117 H117       28.7380   33.0777    7.0015 H         1 UNK         0.0813 
    118 H118       27.1153   32.4173    7.1185 H         1 UNK         0.0813 
    119 H119       28.2203   32.2473    8.4672 H         1 UNK         0.0813 
    120 H120       30.4814   32.3670    7.7878 H         1 UNK         0.3038 
    121 H121       32.3259   30.2678    8.6411 H         1 UNK         0.0769 
    122 H122       32.5664   33.3257    8.6847 H         1 UNK         0.0811 
    123 H123       33.6566   32.1989    9.4792 H         1 UNK         0.0811 
    124 H124       31.9888   32.3171   10.0125 H         1 UNK         0.0811 
    125 H125       31.8448   32.0030    5.6608 H         1 UNK         0.3204 
    126 H126       34.7053   31.7973    4.8580 H         1 UNK         0.0748 
    127 H127       33.9759   33.2458    2.9642 H         1 UNK         0.0771 
    128 H128       32.3194   33.2142    3.5488 H         1 UNK         0.0771 
    129 H129       33.5787   33.9892    4.5039 H         1 UNK         0.0771 
    130 H130       35.1813   30.9422    2.7534 H         1 UNK         0.2980 
    131 H131       33.3479   28.8159    1.7383 H         1 UNK         0.0545 
    132 H132       32.4309   29.4776   -0.1784 H         1 UNK         0.3459 
    133 H133       33.2110   30.5367   -1.3435 H         1 UNK         0.3459 
    134 H134       36.4105   28.8942    1.7334 H         1 UNK         0.0616 
    135 H135       35.4533   27.7668    0.8113 H         1 UNK         0.0616 
    136 H136       36.4928   25.7325    1.6938 H         1 UNK         0.0634 
    137 H137       36.0805   24.9904    3.2136 H         1 UNK         0.0634 
@<TRIPOS>BOND
     1    1    2 1    
     2    1   72 1    
     3    1   73 1    
     4    1   74 1    
     5    2    3 2    
     6    2    4 am   BACKBONE|DICT|INTERRES
     7    4    5 1    
     8    4   75 1    
     9    5    6 1    
    10    5   35 1    
    11    5   76 1    
    12    6    7 1    
    13    6   77 1    
    14    6   78 1    
    15    7    8 1    
    16    8    9 1    
    17    8   79 1    
    18    8   80 1    
    19    9   10 ar   
    20    9   14 ar   
    21   10   11 ar   
    22   10   81 1    
    23   11   12 ar   
    24   11   71 1    
    25   12   13 ar   
    26   12   82 1    
    27   13   14 ar   
    28   13   15 1    
    29   14   83 1    
    30   15   16 1    
    31   15   84 1    
    32   15   85 1    
    33   16   17 1    
    34   17   18 1    
    35   17   86 1    
    36   17   87 1    
    37   18   19 1    
    38   18   37 1    
    39   18   88 1    
    40   19   20 am   BACKBONE|DICT|INTERRES
    41   19   89 1    
    42   20   21 2    
    43   20   22 1    
    44   22   23 1    
    45   22   24 1    
    46   22   90 1    
    47   23   91 1    
    48   23   92 1    
    49   23   93 1    
    50   24   25 am   BACKBONE|DICT|INTERRES
    51   24   94 1    
    52   25   26 2    
    53   25   27 1    
    54   27   28 1    
    55   27   29 1    
    56   27   95 1    
    57   28   96 1    
    58   28   97 1    
    59   28   98 1    
    60   29   30 am   BACKBONE|DICT|INTERRES
    61   29   99 1    
    62   30   31 2    
    63   30   32 1    
    64   32   33 1    
    65   32   34 1    
    66   32  100 1    
    67   33  101 1    
    68   33  102 1    
    69   33  103 1    
    70   34   35 am   BACKBONE|DICT|INTERRES
    71   34  104 1    
    72   35   36 2    
    73   37   38 2    
    74   37   39 am   BACKBONE|DICT|INTERRES
    75   39   40 1    
    76   39  105 1    
    77   40   41 1    
    78   40   42 1    
    79   40  106 1    
    80   41  107 1    
    81   41  108 1    
    82   41  109 1    
    83   42   43 2    
    84   42   44 am   BACKBONE|DICT|INTERRES
    85   44   45 1    
    86   44  110 1    
    87   45   46 1    
    88   45   47 1    
    89   45  111 1    
    90   46  112 1    
    91   46  113 1    
    92   46  114 1    
    93   47   48 2    
    94   47   49 am   BACKBONE|DICT|INTERRES
    95   49   50 1    
    96   49  115 1    
    97   50   51 1    
    98   50   52 1    
    99   50  116 1    
   100   51  117 1    
   101   51  118 1    
   102   51  119 1    
   103   52   53 2    
   104   52   54 am   BACKBONE|DICT|INTERRES
   105   54   55 1    
   106   54  120 1    
   107   55   56 1    
   108   55   57 1    
   109   55  121 1    
   110   56  122 1    
   111   56  123 1    
   112   56  124 1    
   113   57   58 2    
   114   57   59 am   BACKBONE|DICT|INTERRES
   115   59   60 1    
   116   59  125 1    
   117   60   61 1    
   118   60   62 1    
   119   60  126 1    
   120   61  127 1    
   121   61  128 1    
   122   61  129 1    
   123   62   63 2    
   124   62   64 am   BACKBONE|DICT|INTERRES
   125   64   65 1    
   126   64  130 1    
   127   65   66 1    
   128   65   69 1    
   129   65  131 1    
   130   66   67 am   BACKBONE|DICT|INTERRES
   131   66   68 2    
   132   67  132 1    
   133   67  133 1    
   134   69   70 1    
   135   69  134 1    
   136   69  135 1    
   137   70   71 1    
   138   71  136 1    
   139   71  137 1    
@<TRIPOS>SUBSTRUCTURE
     1 UNK         1 GROUP             0       ****    0 ROOT    
