@<TRIPOS>MOLECULE
3R136
137   139    1
SMALL
USER_CHARGES


@<TRIPOS>ATOM
      1 CA         29.7231   16.4390    0.8473 C.3       0 UNK        -0.1979 
      2 C          29.7752   17.9257    0.5290 C.2       0 UNK         0.4864 
      3 O          29.9210   18.2985   -0.6369 O.2       0 UNK        -0.5359 
      4 N          29.6502   18.7821    1.5521 N.am      1 UNK        -0.4318 
      5 CA         29.6565   20.2452    1.4411 C.3       1 UNK         0.0824 
      6 C6         30.1334   20.9043    2.7665 C.3       12 UNK        -0.0944 
      7 S7         31.0270   22.4773    2.5191 S.3       12 UNK        -0.2672 
      8 C8         29.6517   23.6636    2.4433 C.3       12 UNK         0.0333 
      9 C9         30.0844   25.0639    2.8489 C.ar      12 UNK        -0.0807 
     10 C10        29.7389   25.5583    4.1095 C.ar      12 UNK        -0.0894 
     11 C11        30.0735   26.8634    4.4778 C.ar      12 UNK        -0.0804 
     12 C12        30.7685   27.6736    3.5753 C.ar      12 UNK        -0.0824 
     13 C13        31.1347   27.1866    2.3167 C.ar      12 UNK        -0.0762 
     14 C14        30.7858   25.8809    1.9559 C.ar      12 UNK        -0.0782 
     15 C15        31.9336   28.0627    1.3623 C.3       12 UNK         0.0230 
     16 S16        30.8825   28.9118    0.1369 S.3       12 UNK        -0.2608 
     17 C17        29.9167   30.0556    1.1845 C.3       12 UNK        -0.0989 
     18 CA         28.3975   29.7341    1.2104 C.3       5 UNK         0.0716 
     19 N          28.1270   28.3165    1.4480 N.am      5 UNK        -0.4135 
     20 C          26.9600   27.7064    1.2149 C.2       4 UNK         0.5031 
     21 O          25.9372   28.2813    0.8330 O.2       4 UNK        -0.5229 
     22 CA         26.9401   26.1868    1.4503 C.3       4 UNK         0.0329 
     23 CB         26.3641   25.8562    2.8363 C.3       4 UNK        -0.2001 
     24 N          26.2018   25.4468    0.4236 N.am      4 UNK        -0.4303 
     25 C          26.4910   25.4463   -0.8860 C.2       3 UNK         0.5044 
     26 O          27.4178   26.0846   -1.3899 O.2       3 UNK        -0.5152 
     27 CA         25.6108   24.5331   -1.7628 C.3       3 UNK         0.0319 
     28 CB         25.8530   24.7348   -3.2744 C.3       3 UNK        -0.2001 
     29 N          25.7493   23.1139   -1.4028 N.am      3 UNK        -0.4354 
     30 C          26.8796   22.3895   -1.3836 C.2       2 UNK         0.4964 
     31 O          27.9919   22.8188   -1.6997 O.2       2 UNK        -0.5047 
     32 CA         26.7320   20.9129   -0.9796 C.3       2 UNK         0.0288 
     33 CB         26.4751   20.0366   -2.2166 C.3       2 UNK        -0.2113 
     34 N          27.9357   20.4338   -0.2994 N.am      2 UNK        -0.4145 
     35 C          28.2781   20.7526    0.9546 C.2       1 UNK         0.5006 
     36 O          27.5372   21.3819    1.7133 O.2       1 UNK        -0.5103 
     37 C          27.6941   30.5983    2.2713 C.2       5 UNK         0.5055 
     38 O          27.7739   30.2833    3.4616 O.2       5 UNK        -0.5220 
     39 N          27.0852   31.7117    1.8432 N.am      6 UNK        -0.4450 
     40 CA         26.4498   32.7090    2.7127 C.3       6 UNK         0.0367 
     41 CB         25.3698   33.4573    1.9087 C.3       6 UNK        -0.1929 
     42 C          27.4959   33.6593    3.3306 C.2       6 UNK         0.5070 
     43 O          27.4374   34.8697    3.1123 O.2       6 UNK        -0.5237 
     44 N          28.4719   33.0750    4.0418 N.am      7 UNK        -0.4739 
     45 CA         29.6483   33.7037    4.6651 C.3       7 UNK         0.0276 
     46 CB         29.2236   34.6913    5.7725 C.3       7 UNK        -0.1927 
     47 C          30.6419   34.3394    3.6667 C.2       7 UNK         0.5013 
     48 O          31.5317   35.0806    4.0867 O.2       7 UNK        -0.5193 
     49 N          30.4947   34.0294    2.3705 N.am      8 UNK        -0.4253 
     50 CA         31.3373   34.5264    1.2780 C.3       8 UNK         0.0242 
     51 CB         30.5973   34.3220   -0.0547 C.3       8 UNK        -0.2000 
     52 C          32.7316   33.8743    1.2250 C.2       8 UNK         0.4948 
     53 O          33.6350   34.4381    0.6059 O.2       8 UNK        -0.5275 
     54 N          32.8837   32.7100    1.8635 N.am      9 UNK        -0.4246 
     55 CA         34.1197   31.9504    1.9990 C.3       9 UNK         0.0261 
     56 CB         34.3629   31.1045    0.7350 C.3       9 UNK        -0.1959 
     57 C          34.0017   31.0817    3.2570 C.2       9 UNK         0.5033 
     58 O          32.8903   30.8894    3.7621 O.2       9 UNK        -0.5390 
     59 N          35.1468   30.5865    3.7421 N.am      10 UNK        -0.4215 
     60 CA         35.2538   29.7396    4.9321 C.3       10 UNK         0.0240 
     61 CB         36.7359   29.5942    5.3157 C.3       10 UNK        -0.1982 
     62 C          34.6134   28.3564    4.7280 C.2       10 UNK         0.4970 
     63 O          34.6868   27.8013    3.6294 O.2       10 UNK        -0.4916 
     64 N          34.0306   27.8249    5.8070 N.am      11 UNK        -0.4279 
     65 CA         33.3126   26.5396    5.8346 C.3       11 UNK         0.1003 
     66 C          34.2278   25.2883    5.9734 C.2       11 UNK         0.5709 
     67 N          35.5390   25.4334    6.1275 N.am      11 UNK        -0.7358 
     68 O          33.7409   24.1611    5.9362 O.2       11 UNK        -0.4999 
     69 C69        32.1811   26.5384    6.9021 C.3       12 UNK        -0.0954 
     70 S70        31.0965   28.0080    6.8122 S.3       12 UNK        -0.2268 
     71 C71        29.6768   27.3930    5.8498 C.3       12 UNK         0.0203 
     72 H72        30.6458   15.9550    0.5282 H         1 UNK         0.0888 
     73 H73        29.5947   16.2543    1.9137 H         1 UNK         0.0888 
     74 H74        28.8924   15.9716    0.3194 H         1 UNK         0.0888 
     75 H75        29.4997   18.4171    2.4822 H         1 UNK         0.3017 
     76 H76        30.3801   20.5089    0.6659 H         1 UNK         0.0873 
     77 H77        29.3256   21.0293    3.4901 H         1 UNK         0.0745 
     78 H78        30.8500   20.2464    3.2613 H         1 UNK         0.0745 
     79 H79        29.2482   23.6797    1.4295 H         1 UNK         0.0705 
     80 H80        28.8392   23.3281    3.0896 H         1 UNK         0.0705 
     81 H81        29.1962   24.9282    4.8010 H         1 UNK         0.1334 
     82 H82        31.0474   28.6766    3.8701 H         1 UNK         0.1417 
     83 H83        31.0592   25.4998    0.9808 H         1 UNK         0.1562 
     84 H84        32.6665   27.4513    0.8338 H         1 UNK         0.0748 
     85 H85        32.5099   28.7986    1.9233 H         1 UNK         0.0748 
     86 H86        30.0738   31.0625    0.7956 H         1 UNK         0.0940 
     87 H87        30.3381   30.0680    2.1905 H         1 UNK         0.0940 
     88 H88        27.9854   29.9803    0.2291 H         1 UNK         0.0703 
     89 H89        28.9103   27.7760    1.7881 H         1 UNK         0.3081 
     90 H90        27.9664   25.8280    1.4039 H         1 UNK         0.0719 
     91 H91        25.3134   26.1384    2.9129 H         1 UNK         0.0809 
     92 H92        26.4464   24.7917    3.0575 H         1 UNK         0.0809 
     93 H93        26.9016   26.3912    3.6207 H         1 UNK         0.0809 
     94 H94        25.4177   24.8968    0.7421 H         1 UNK         0.2990 
     95 H95        24.5750   24.8099   -1.5596 H         1 UNK         0.0690 
     96 H96        25.6831   25.7736   -3.5601 H         1 UNK         0.0788 
     97 H97        25.1775   24.1203   -3.8695 H         1 UNK         0.0788 
     98 H98        26.8746   24.4829   -3.5614 H         1 UNK         0.0788 
     99 H99        24.8915   22.6556   -1.1263 H         1 UNK         0.2993 
    100 H100       25.8853   20.8138   -0.2964 H         1 UNK         0.0949 
    101 H101       25.5677   20.3479   -2.7361 H         1 UNK         0.0767 
    102 H102       27.2973   20.0973   -2.9311 H         1 UNK         0.0767 
    103 H103       26.3473   18.9894   -1.9411 H         1 UNK         0.0767 
    104 H104       28.5886   19.8780   -0.8415 H         1 UNK         0.3013 
    105 H105       27.0796   31.9152    0.8534 H         1 UNK         0.3121 
    106 H106       25.9510   32.1970    3.5388 H         1 UNK         0.0774 
    107 H107       24.8514   34.1849    2.5347 H         1 UNK         0.0815 
    108 H108       25.7955   33.9994    1.0633 H         1 UNK         0.0815 
    109 H109       24.6158   32.7710    1.5227 H         1 UNK         0.0815 
    110 H110       28.4141   32.0638    4.1337 H         1 UNK         0.2987 
    111 H111       30.1989   32.8927    5.1450 H         1 UNK         0.0949 
    112 H112       28.7285   35.5723    5.3630 H         1 UNK         0.0806 
    113 H113       28.5425   34.2226    6.4827 H         1 UNK         0.0806 
    114 H114       30.0875   35.0409    6.3391 H         1 UNK         0.0806 
    115 H115       29.7169   33.4397    2.1180 H         1 UNK         0.3010 
    116 H116       31.4861   35.5985    1.4249 H         1 UNK         0.0829 
    117 H117       29.6305   34.8262   -0.0543 H         1 UNK         0.0813 
    118 H118       31.1731   34.7321   -0.8857 H         1 UNK         0.0813 
    119 H119       30.4280   33.2664   -0.2687 H         1 UNK         0.0813 
    120 H120       32.1200   32.3370    2.4136 H         1 UNK         0.3038 
    121 H121       34.9516   32.6434    2.1429 H         1 UNK         0.0769 
    122 H122       33.5145   30.4584    0.5131 H         1 UNK         0.0811 
    123 H123       35.2415   30.4677    0.8436 H         1 UNK         0.0811 
    124 H124       34.5304   31.7380   -0.1361 H         1 UNK         0.0811 
    125 H125       36.0046   30.7672    3.2411 H         1 UNK         0.3204 
    126 H126       34.7328   30.2484    5.7464 H         1 UNK         0.0748 
    127 H127       36.8498   29.0031    6.2254 H         1 UNK         0.0771 
    128 H128       37.3092   29.0983    4.5310 H         1 UNK         0.0771 
    129 H129       37.1949   30.5649    5.5049 H         1 UNK         0.0771 
    130 H130       34.0288   28.3425    6.6732 H         1 UNK         0.2980 
    131 H131       32.8355   26.4156    4.8625 H         1 UNK         0.0545 
    132 H132       35.9520   26.3511    6.1523 H         1 UNK         0.3459 
    133 H133       36.1193   24.6139    6.2132 H         1 UNK         0.3459 
    134 H134       31.5673   25.6404    6.8102 H         1 UNK         0.0616 
    135 H135       32.6113   26.5095    7.9047 H         1 UNK         0.0616 
    136 H136       28.9633   28.2076    5.7177 H         1 UNK         0.0634 
    137 H137       29.1657   26.6256    6.4331 H         1 UNK         0.0634 
@<TRIPOS>BOND
     1    1    2 1    
     2    1   72 1    
     3    1   73 1    
     4    1   74 1    
     5    2    3 2    
     6    2    4 am   BACKBONE|DICT|INTERRES
     7    4    5 1    
     8    4   75 1    
     9    5    6 1    
    10    5   35 1    
    11    5   76 1    
    12    6    7 1    
    13    6   77 1    
    14    6   78 1    
    15    7    8 1    
    16    8    9 1    
    17    8   79 1    
    18    8   80 1    
    19    9   10 ar   
    20    9   14 ar   
    21   10   11 ar   
    22   10   81 1    
    23   11   12 ar   
    24   11   71 1    
    25   12   13 ar   
    26   12   82 1    
    27   13   14 ar   
    28   13   15 1    
    29   14   83 1    
    30   15   16 1    
    31   15   84 1    
    32   15   85 1    
    33   16   17 1    
    34   17   18 1    
    35   17   86 1    
    36   17   87 1    
    37   18   19 1    
    38   18   37 1    
    39   18   88 1    
    40   19   20 am   BACKBONE|DICT|INTERRES
    41   19   89 1    
    42   20   21 2    
    43   20   22 1    
    44   22   23 1    
    45   22   24 1    
    46   22   90 1    
    47   23   91 1    
    48   23   92 1    
    49   23   93 1    
    50   24   25 am   BACKBONE|DICT|INTERRES
    51   24   94 1    
    52   25   26 2    
    53   25   27 1    
    54   27   28 1    
    55   27   29 1    
    56   27   95 1    
    57   28   96 1    
    58   28   97 1    
    59   28   98 1    
    60   29   30 am   BACKBONE|DICT|INTERRES
    61   29   99 1    
    62   30   31 2    
    63   30   32 1    
    64   32   33 1    
    65   32   34 1    
    66   32  100 1    
    67   33  101 1    
    68   33  102 1    
    69   33  103 1    
    70   34   35 am   BACKBONE|DICT|INTERRES
    71   34  104 1    
    72   35   36 2    
    73   37   38 2    
    74   37   39 am   BACKBONE|DICT|INTERRES
    75   39   40 1    
    76   39  105 1    
    77   40   41 1    
    78   40   42 1    
    79   40  106 1    
    80   41  107 1    
    81   41  108 1    
    82   41  109 1    
    83   42   43 2    
    84   42   44 am   BACKBONE|DICT|INTERRES
    85   44   45 1    
    86   44  110 1    
    87   45   46 1    
    88   45   47 1    
    89   45  111 1    
    90   46  112 1    
    91   46  113 1    
    92   46  114 1    
    93   47   48 2    
    94   47   49 am   BACKBONE|DICT|INTERRES
    95   49   50 1    
    96   49  115 1    
    97   50   51 1    
    98   50   52 1    
    99   50  116 1    
   100   51  117 1    
   101   51  118 1    
   102   51  119 1    
   103   52   53 2    
   104   52   54 am   BACKBONE|DICT|INTERRES
   105   54   55 1    
   106   54  120 1    
   107   55   56 1    
   108   55   57 1    
   109   55  121 1    
   110   56  122 1    
   111   56  123 1    
   112   56  124 1    
   113   57   58 2    
   114   57   59 am   BACKBONE|DICT|INTERRES
   115   59   60 1    
   116   59  125 1    
   117   60   61 1    
   118   60   62 1    
   119   60  126 1    
   120   61  127 1    
   121   61  128 1    
   122   61  129 1    
   123   62   63 2    
   124   62   64 am   BACKBONE|DICT|INTERRES
   125   64   65 1    
   126   64  130 1    
   127   65   66 1    
   128   65   69 1    
   129   65  131 1    
   130   66   67 am   BACKBONE|DICT|INTERRES
   131   66   68 2    
   132   67  132 1    
   133   67  133 1    
   134   69   70 1    
   135   69  134 1    
   136   69  135 1    
   137   70   71 1    
   138   71  136 1    
   139   71  137 1    
@<TRIPOS>SUBSTRUCTURE
     1 UNK         1 GROUP             0       ****    0 ROOT    
