@<TRIPOS>MOLECULE
3R136
137   139    1
SMALL
USER_CHARGES


@<TRIPOS>ATOM
      1 CA         27.7771   22.6065   -3.8166 C.3       0 UNK        -0.1979 
      2 C          28.0596   22.1924   -2.3750 C.2       0 UNK         0.4864 
      3 O          27.9739   21.0057   -2.0624 O.2       0 UNK        -0.5359 
      4 N          28.4047   23.1174   -1.4699 N.am      1 UNK        -0.4318 
      5 CA         28.4824   24.5708   -1.6635 C.3       1 UNK         0.0824 
      6 C6         29.6021   25.1839   -0.7829 C.3       12 UNK        -0.0944 
      7 S7         31.2548   24.7161   -1.4018 S.3       12 UNK        -0.2672 
      8 C8         31.8001   23.4509   -0.2040 C.3       12 UNK         0.0333 
      9 C9         32.1379   23.9943    1.1835 C.ar      12 UNK        -0.0807 
     10 C10        32.8221   25.2059    1.3533 C.ar      12 UNK        -0.0894 
     11 C11        33.1278   25.6814    2.6335 C.ar      12 UNK        -0.0804 
     12 C12        32.7589   24.9252    3.7477 C.ar      12 UNK        -0.0824 
     13 C13        32.0558   23.7288    3.5969 C.ar      12 UNK        -0.0762 
     14 C14        31.7742   23.2533    2.3130 C.ar      12 UNK        -0.0782 
     15 C15        31.5613   22.9829    4.8285 C.3       12 UNK         0.0230 
     16 S16        29.7411   23.0177    4.9863 S.3       12 UNK        -0.2608 
     17 C17        29.3075   24.7655    4.6502 C.3       12 UNK        -0.0989 
     18 CA         28.8140   24.9611    3.1876 C.3       5 UNK         0.0716 
     19 N          27.6232   24.1670    2.9018 N.am      5 UNK        -0.4135 
     20 C          27.5036   23.2012    1.9878 C.2       4 UNK         0.5031 
     21 O          28.4477   22.6904    1.3840 O.2       4 UNK        -0.5229 
     22 CA         26.0665   22.7867    1.6234 C.3       4 UNK         0.0329 
     23 CB         25.4752   21.7974    2.6466 C.3       4 UNK        -0.2001 
     24 N          25.1943   23.9487    1.3830 N.am      4 UNK        -0.4303 
     25 C          24.7297   24.8483    2.2658 C.2       3 UNK         0.5044 
     26 O          24.8746   24.7492    3.4856 O.2       3 UNK        -0.5152 
     27 CA         24.1096   26.1184    1.6694 C.3       3 UNK         0.0319 
     28 CB         23.7821   27.1902    2.7265 C.3       3 UNK        -0.2001 
     29 N          25.0499   26.6678    0.6941 N.am      3 UNK        -0.4354 
     30 C          24.7226   27.0793   -0.5346 C.2       2 UNK         0.4964 
     31 O          23.5643   27.1580   -0.9465 O.2       2 UNK        -0.5047 
     32 CA         25.8784   27.4395   -1.4860 C.3       2 UNK         0.0288 
     33 CB         26.3157   28.8956   -1.2599 C.3       2 UNK        -0.2113 
     34 N          27.0644   26.5706   -1.4351 N.am      2 UNK        -0.4145 
     35 C          27.0949   25.2281   -1.4588 C.2       1 UNK         0.5006 
     36 O          26.0851   24.5220   -1.3813 O.2       1 UNK        -0.5103 
     37 C          28.4982   26.4223    2.7927 C.2       5 UNK         0.5055 
     38 O          27.6713   26.6400    1.9006 O.2       5 UNK        -0.5220 
     39 N          29.1496   27.3966    3.4446 N.am      6 UNK        -0.4450 
     40 CA         28.9316   28.8438    3.3036 C.3       6 UNK         0.0367 
     41 CB         27.5258   29.2366    3.8065 C.3       6 UNK        -0.1929 
     42 C          29.2409   29.3979    1.8987 C.2       6 UNK         0.5070 
     43 O          28.5071   30.2485    1.3939 O.2       6 UNK        -0.5237 
     44 N          30.3408   28.9240    1.2985 N.am      7 UNK        -0.4739 
     45 CA         30.8518   29.3974    0.0073 C.3       7 UNK         0.0276 
     46 CB         31.9469   28.4385   -0.4817 C.3       7 UNK        -0.1927 
     47 C          31.4166   30.8285    0.0545 C.2       7 UNK         0.5013 
     48 O          31.3874   31.5224   -0.9627 O.2       7 UNK        -0.5193 
     49 N          31.9394   31.2316    1.2172 N.am      8 UNK        -0.4253 
     50 CA         32.5779   32.5177    1.4751 C.3       8 UNK         0.0242 
     51 CB         34.0228   32.4952    0.9370 C.3       8 UNK        -0.2000 
     52 C          32.5568   32.7755    2.9851 C.2       8 UNK         0.4948 
     53 O          32.2221   31.8723    3.7566 O.2       8 UNK        -0.5275 
     54 N          32.9707   33.9823    3.3954 N.am      9 UNK        -0.4246 
     55 CA         33.0490   34.4310    4.7950 C.3       9 UNK         0.0261 
     56 CB         33.5081   35.8983    4.8260 C.3       9 UNK        -0.1959 
     57 C          33.9415   33.5696    5.7142 C.2       9 UNK         0.5033 
     58 O          33.7833   33.6308    6.9340 O.2       9 UNK        -0.5390 
     59 N          34.8381   32.7692    5.1212 N.am      10 UNK        -0.4215 
     60 CA         35.6483   31.7531    5.7947 C.3       10 UNK         0.0240 
     61 CB         36.7289   31.2544    4.8207 C.3       10 UNK        -0.1982 
     62 C          34.8340   30.5622    6.3411 C.2       10 UNK         0.4970 
     63 O          35.3291   29.8788    7.2387 O.2       10 UNK        -0.4916 
     64 N          33.6291   30.3250    5.8047 N.am      11 UNK        -0.4279 
     65 CA         32.7306   29.2308    6.2047 C.3       11 UNK         0.1003 
     66 C          31.2452   29.6478    6.3858 C.2       11 UNK         0.5709 
     67 N          30.8087   30.8128    5.9255 N.am      11 UNK        -0.7358 
     68 O          30.4719   28.9016    6.9811 O.2       11 UNK        -0.4999 
     69 C69        32.8938   27.9717    5.3106 C.3       12 UNK        -0.0954 
     70 S70        32.7653   28.2947    3.5141 S.3       12 UNK        -0.2268 
     71 C71        33.8556   27.0078    2.8177 C.3       12 UNK         0.0203 
     72 H72        26.9878   23.3561   -3.8621 H         1 UNK         0.0888 
     73 H73        28.6753   23.0076   -4.2854 H         1 UNK         0.0888 
     74 H74        27.4508   21.7485   -4.4041 H         1 UNK         0.0888 
     75 H75        28.5417   22.8191   -0.5076 H         1 UNK         0.3017 
     76 H76        28.7454   24.7805   -2.7014 H         1 UNK         0.0873 
     77 H77        29.5680   26.2733   -0.7817 H         1 UNK         0.0745 
     78 H78        29.4928   24.8821    0.2567 H         1 UNK         0.0745 
     79 H79        31.0273   22.6830   -0.1393 H         1 UNK         0.0705 
     80 H80        32.6882   22.9599   -0.6030 H         1 UNK         0.0705 
     81 H81        33.1187   25.7790    0.4862 H         1 UNK         0.1334 
     82 H82        32.9984   25.2795    4.7391 H         1 UNK         0.1417 
     83 H83        31.2266   22.3269    2.1988 H         1 UNK         0.1562 
     84 H84        31.9980   23.4018    5.7365 H         1 UNK         0.0748 
     85 H85        31.8937   21.9451    4.7811 H         1 UNK         0.0748 
     86 H86        30.1752   25.3863    4.8743 H         1 UNK         0.0940 
     87 H87        28.5303   25.0650    5.3558 H         1 UNK         0.0940 
     88 H88        29.6131   24.6644    2.5149 H         1 UNK         0.0703 
     89 H89        26.7576   24.5210    3.2992 H         1 UNK         0.3081 
     90 H90        26.1244   22.2672    0.6652 H         1 UNK         0.0719 
     91 H91        25.4408   22.2134    3.6536 H         1 UNK         0.0809 
     92 H92        24.4638   21.4993    2.3708 H         1 UNK         0.0809 
     93 H93        26.0793   20.8906    2.6963 H         1 UNK         0.0809 
     94 H94        25.0990   24.1859    0.3996 H         1 UNK         0.2990 
     95 H95        23.1809   25.8143    1.1821 H         1 UNK         0.0690 
     96 H96        23.3403   28.0751    2.2685 H         1 UNK         0.0788 
     97 H97        24.6743   27.5038    3.2695 H         1 UNK         0.0788 
     98 H98        23.0678   26.8119    3.4588 H         1 UNK         0.0788 
     99 H99        26.0327   26.6469    0.9664 H         1 UNK         0.2993 
    100 H100       25.4829   27.3605   -2.5007 H         1 UNK         0.0949 
    101 H101       27.0399   29.2183   -2.0082 H         1 UNK         0.0767 
    102 H102       25.4647   29.5755   -1.3210 H         1 UNK         0.0767 
    103 H103       26.7671   29.0271   -0.2758 H         1 UNK         0.0767 
    104 H104       27.9474   27.0563   -1.4819 H         1 UNK         0.3013 
    105 H105       29.8385   27.1330    4.1340 H         1 UNK         0.3121 
    106 H106       29.6547   29.3202    3.9628 H         1 UNK         0.0774 
    107 H107       27.4153   30.3207    3.8483 H         1 UNK         0.0815 
    108 H108       26.7421   28.8570    3.1504 H         1 UNK         0.0815 
    109 H109       27.3411   28.8546    4.8104 H         1 UNK         0.0815 
    110 H110       30.9012   28.2412    1.7902 H         1 UNK         0.2987 
    111 H111       30.0284   29.3852   -0.7102 H         1 UNK         0.0949 
    112 H112       32.8222   28.4601    0.1681 H         1 UNK         0.0806 
    113 H113       31.5884   27.4141   -0.5219 H         1 UNK         0.0806 
    114 H114       32.2801   28.7051   -1.4856 H         1 UNK         0.0806 
    115 H115       31.8770   30.6289    2.0291 H         1 UNK         0.3010 
    116 H116       32.0069   33.3088    0.9847 H         1 UNK         0.0829 
    117 H117       34.0436   32.3099   -0.1371 H         1 UNK         0.0813 
    118 H118       34.5279   33.4473    1.1030 H         1 UNK         0.0813 
    119 H119       34.6184   31.7181    1.4182 H         1 UNK         0.0813 
    120 H120       33.2382   34.6608    2.6962 H         1 UNK         0.3038 
    121 H121       32.0380   34.3816    5.2048 H         1 UNK         0.0769 
    122 H122       32.8230   36.5419    4.2738 H         1 UNK         0.0811 
    123 H123       34.5039   36.0187    4.3977 H         1 UNK         0.0811 
    124 H124       33.5464   36.2750    5.8493 H         1 UNK         0.0811 
    125 H125       34.9005   32.8027    4.1148 H         1 UNK         0.3204 
    126 H126       36.1429   32.2273    6.6450 H         1 UNK         0.0748 
    127 H127       37.3653   32.0713    4.4797 H         1 UNK         0.0771 
    128 H128       37.3779   30.5200    5.3001 H         1 UNK         0.0771 
    129 H129       36.2915   30.7775    3.9423 H         1 UNK         0.0771 
    130 H130       33.2812   30.9227    5.0621 H         1 UNK         0.2980 
    131 H131       33.0153   28.9255    7.2134 H         1 UNK         0.0545 
    132 H132       31.3824   31.3721    5.3023 H         1 UNK         0.3459 
    133 H133       29.8490   31.0703    6.0862 H         1 UNK         0.3459 
    134 H134       32.1614   27.2114    5.5853 H         1 UNK         0.0616 
    135 H135       33.8703   27.5304    5.5136 H         1 UNK         0.0616 
    136 H136       34.7305   26.8682    3.4538 H         1 UNK         0.0634 
    137 H137       34.2368   27.3642    1.8601 H         1 UNK         0.0634 
@<TRIPOS>BOND
     1    1    2 1    
     2    1   72 1    
     3    1   73 1    
     4    1   74 1    
     5    2    3 2    
     6    2    4 am   BACKBONE|DICT|INTERRES
     7    4    5 1    
     8    4   75 1    
     9    5    6 1    
    10    5   35 1    
    11    5   76 1    
    12    6    7 1    
    13    6   77 1    
    14    6   78 1    
    15    7    8 1    
    16    8    9 1    
    17    8   79 1    
    18    8   80 1    
    19    9   10 ar   
    20    9   14 ar   
    21   10   11 ar   
    22   10   81 1    
    23   11   12 ar   
    24   11   71 1    
    25   12   13 ar   
    26   12   82 1    
    27   13   14 ar   
    28   13   15 1    
    29   14   83 1    
    30   15   16 1    
    31   15   84 1    
    32   15   85 1    
    33   16   17 1    
    34   17   18 1    
    35   17   86 1    
    36   17   87 1    
    37   18   19 1    
    38   18   37 1    
    39   18   88 1    
    40   19   20 am   BACKBONE|DICT|INTERRES
    41   19   89 1    
    42   20   21 2    
    43   20   22 1    
    44   22   23 1    
    45   22   24 1    
    46   22   90 1    
    47   23   91 1    
    48   23   92 1    
    49   23   93 1    
    50   24   25 am   BACKBONE|DICT|INTERRES
    51   24   94 1    
    52   25   26 2    
    53   25   27 1    
    54   27   28 1    
    55   27   29 1    
    56   27   95 1    
    57   28   96 1    
    58   28   97 1    
    59   28   98 1    
    60   29   30 am   BACKBONE|DICT|INTERRES
    61   29   99 1    
    62   30   31 2    
    63   30   32 1    
    64   32   33 1    
    65   32   34 1    
    66   32  100 1    
    67   33  101 1    
    68   33  102 1    
    69   33  103 1    
    70   34   35 am   BACKBONE|DICT|INTERRES
    71   34  104 1    
    72   35   36 2    
    73   37   38 2    
    74   37   39 am   BACKBONE|DICT|INTERRES
    75   39   40 1    
    76   39  105 1    
    77   40   41 1    
    78   40   42 1    
    79   40  106 1    
    80   41  107 1    
    81   41  108 1    
    82   41  109 1    
    83   42   43 2    
    84   42   44 am   BACKBONE|DICT|INTERRES
    85   44   45 1    
    86   44  110 1    
    87   45   46 1    
    88   45   47 1    
    89   45  111 1    
    90   46  112 1    
    91   46  113 1    
    92   46  114 1    
    93   47   48 2    
    94   47   49 am   BACKBONE|DICT|INTERRES
    95   49   50 1    
    96   49  115 1    
    97   50   51 1    
    98   50   52 1    
    99   50  116 1    
   100   51  117 1    
   101   51  118 1    
   102   51  119 1    
   103   52   53 2    
   104   52   54 am   BACKBONE|DICT|INTERRES
   105   54   55 1    
   106   54  120 1    
   107   55   56 1    
   108   55   57 1    
   109   55  121 1    
   110   56  122 1    
   111   56  123 1    
   112   56  124 1    
   113   57   58 2    
   114   57   59 am   BACKBONE|DICT|INTERRES
   115   59   60 1    
   116   59  125 1    
   117   60   61 1    
   118   60   62 1    
   119   60  126 1    
   120   61  127 1    
   121   61  128 1    
   122   61  129 1    
   123   62   63 2    
   124   62   64 am   BACKBONE|DICT|INTERRES
   125   64   65 1    
   126   64  130 1    
   127   65   66 1    
   128   65   69 1    
   129   65  131 1    
   130   66   67 am   BACKBONE|DICT|INTERRES
   131   66   68 2    
   132   67  132 1    
   133   67  133 1    
   134   69   70 1    
   135   69  134 1    
   136   69  135 1    
   137   70   71 1    
   138   71  136 1    
   139   71  137 1    
@<TRIPOS>SUBSTRUCTURE
     1 UNK         1 GROUP             0       ****    0 ROOT    
