@<TRIPOS>MOLECULE
3R136
137   139    1
SMALL
USER_CHARGES


@<TRIPOS>ATOM
      1 CA         30.5042   25.2764    4.3884 C.3       0 UNK        -0.1979 
      2 C          29.4218   24.3687    3.8300 C.2       0 UNK         0.4864 
      3 O          28.4619   24.0496    4.5329 O.2       0 UNK        -0.5359 
      4 N          29.5537   23.9636    2.5612 N.am      1 UNK        -0.4318 
      5 CA         28.6484   23.0556    1.8416 C.3       1 UNK         0.0824 
      6 C6         29.3634   22.3260    0.6719 C.3       12 UNK        -0.0944 
      7 S7         30.8252   21.3698    1.2135 S.3       12 UNK        -0.2672 
      8 C8         32.1919   22.1776    0.3169 C.3       12 UNK         0.0333 
      9 C9         32.5436   23.5316    0.9157 C.ar      12 UNK        -0.0807 
     10 C10        33.4563   23.6257    1.9719 C.ar      12 UNK        -0.0894 
     11 C11        33.7746   24.8702    2.5277 C.ar      12 UNK        -0.0804 
     12 C12        33.1520   26.0218    2.0356 C.ar      12 UNK        -0.0824 
     13 C13        32.2245   25.9345    0.9942 C.ar      12 UNK        -0.0762 
     14 C14        31.9527   24.6932    0.4144 C.ar      12 UNK        -0.0782 
     15 C15        31.4723   27.1658    0.5226 C.3       12 UNK         0.0230 
     16 S16        29.7114   26.9948    0.9342 S.3       12 UNK        -0.2608 
     17 C17        29.0575   28.6117    0.4276 C.3       12 UNK        -0.0989 
     18 CA         28.7167   28.7112   -1.0797 C.3       5 UNK         0.0716 
     19 N          27.9092   27.5770   -1.5246 N.am      5 UNK        -0.4135 
     20 C          28.0006   26.9967   -2.7272 C.2       4 UNK         0.5031 
     21 O          28.7486   27.3923   -3.6230 O.2       4 UNK        -0.5229 
     22 CA         27.1390   25.7434   -2.9763 C.3       4 UNK         0.0329 
     23 CB         27.9926   24.4756   -2.8100 C.3       4 UNK        -0.2001 
     24 N          25.9743   25.6611   -2.0915 N.am      4 UNK        -0.4303 
     25 C          24.9068   26.4680   -2.1849 C.2       3 UNK         0.5044 
     26 O          24.7478   27.2754   -3.1015 O.2       3 UNK        -0.5152 
     27 CA         23.8323   26.3820   -1.0837 C.3       3 UNK         0.0319 
     28 CB         22.5461   25.7449   -1.6362 C.3       3 UNK        -0.2001 
     29 N          24.2285   25.6627    0.1310 N.am      3 UNK        -0.4354 
     30 C          25.2192   25.9961    0.9707 C.2       2 UNK         0.4964 
     31 O          25.9865   26.9410    0.7822 O.2       2 UNK        -0.5047 
     32 CA         25.3843   25.1235    2.2328 C.3       2 UNK         0.0288 
     33 CB         24.2761   24.0604    2.4152 C.3       2 UNK        -0.2113 
     34 N          26.6972   24.4769    2.3253 N.am      2 UNK        -0.4145 
     35 C          27.3313   23.7441    1.3976 C.2       1 UNK         0.5006 
     36 O          26.9051   23.5821    0.2510 O.2       1 UNK        -0.5103 
     37 C          27.9769   30.0356   -1.3369 C.2       5 UNK         0.5055 
     38 O          26.7441   30.0580   -1.3793 O.2       5 UNK        -0.5220 
     39 N          28.7422   31.1349   -1.4072 N.am      6 UNK        -0.4450 
     40 CA         28.2159   32.5006   -1.2870 C.3       6 UNK         0.0367 
     41 CB         29.2726   33.5109   -1.7625 C.3       6 UNK        -0.1929 
     42 C          27.7782   32.8046    0.1595 C.2       6 UNK         0.5070 
     43 O          26.7382   33.4293    0.3674 O.2       6 UNK        -0.5237 
     44 N          28.5629   32.3139    1.1261 N.am      7 UNK        -0.4739 
     45 CA         28.2545   32.2613    2.5500 C.3       7 UNK         0.0276 
     46 CB         28.7388   33.5410    3.2534 C.3       7 UNK        -0.1927 
     47 C          28.9618   31.0158    3.0919 C.2       7 UNK         0.5013 
     48 O          30.1682   30.8744    2.8787 O.2       7 UNK        -0.5193 
     49 N          28.2099   30.1131    3.7312 N.am      8 UNK        -0.4253 
     50 CA         28.7005   28.8241    4.2259 C.3       8 UNK         0.0242 
     51 CB         27.5282   27.8258    4.2598 C.3       8 UNK        -0.2000 
     52 C          29.3932   28.9799    5.5901 C.2       8 UNK         0.4948 
     53 O          28.8425   28.5681    6.6130 O.2       8 UNK        -0.5275 
     54 N          30.5764   29.6003    5.5827 N.am      9 UNK        -0.4246 
     55 CA         31.3968   29.8864    6.7558 C.3       9 UNK         0.0261 
     56 CB         30.8471   31.1345    7.4772 C.3       9 UNK        -0.1959 
     57 C          32.8547   30.0938    6.3228 C.2       9 UNK         0.5033 
     58 O          33.1308   30.1921    5.1242 O.2       9 UNK        -0.5390 
     59 N          33.7480   30.1870    7.3188 N.am      10 UNK        -0.4215 
     60 CA         35.1803   30.4967    7.2039 C.3       10 UNK         0.0240 
     61 CB         35.3912   31.9308    6.6690 C.3       10 UNK        -0.1982 
     62 C          35.9973   29.4399    6.4324 C.2       10 UNK         0.4970 
     63 O          36.9395   29.7936    5.7201 O.2       10 UNK        -0.4916 
     64 N          35.6430   28.1604    6.6079 N.am      11 UNK        -0.4279 
     65 CA         36.4113   27.0101    6.1078 C.3       11 UNK         0.1003 
     66 C          37.7873   26.8675    6.8162 C.2       11 UNK         0.5709 
     67 N          38.8019   26.3858    6.1111 N.am      11 UNK        -0.7358 
     68 O          37.9319   27.1506    8.0047 O.2       11 UNK        -0.4999 
     69 C69        35.6053   25.6905    6.2193 C.3       12 UNK        -0.0954 
     70 S70        34.1185   25.6913    5.1671 S.3       12 UNK        -0.2268 
     71 C71        34.8081   24.9756    3.6409 C.3       12 UNK         0.0203 
     72 H72        30.1727   25.7565    5.3088 H         1 UNK         0.0888 
     73 H73        31.3962   24.6926    4.6103 H         1 UNK         0.0888 
     74 H74        30.7677   26.0580    3.6773 H         1 UNK         0.0888 
     75 H75        30.3562   24.2776    2.0315 H         1 UNK         0.3017 
     76 H76        28.3416   22.2812    2.5482 H         1 UNK         0.0873 
     77 H77        29.6420   23.0309   -0.1108 H         1 UNK         0.0745 
     78 H78        28.6809   21.6168    0.1995 H         1 UNK         0.0745 
     79 H79        33.0657   21.5252    0.3517 H         1 UNK         0.0705 
     80 H80        31.9321   22.2771   -0.7383 H         1 UNK         0.0705 
     81 H81        33.9226   22.7282    2.3551 H         1 UNK         0.1334 
     82 H82        33.3774   26.9819    2.4804 H         1 UNK         0.1417 
     83 H83        31.2469   24.6343   -0.4029 H         1 UNK         0.1562 
     84 H84        31.5901   27.2820   -0.5557 H         1 UNK         0.0748 
     85 H85        31.8706   28.0689    0.9882 H         1 UNK         0.0748 
     86 H86        29.7790   29.3791    0.7092 H         1 UNK         0.0940 
     87 H87        28.1663   28.7897    1.0338 H         1 UNK         0.0940 
     88 H88        29.6537   28.7254   -1.6406 H         1 UNK         0.0703 
     89 H89        27.2383   27.2282   -0.8482 H         1 UNK         0.3081 
     90 H90        26.7836   25.7837   -4.0082 H         1 UNK         0.0719 
     91 H91        28.4257   24.4125   -1.8114 H         1 UNK         0.0809 
     92 H92        27.4062   23.5726   -2.9802 H         1 UNK         0.0809 
     93 H93        28.8186   24.4663   -3.5224 H         1 UNK         0.0809 
     94 H94        26.0390   25.0214   -1.3080 H         1 UNK         0.2990 
     95 H95        23.6047   27.4086   -0.7893 H         1 UNK         0.0690 
     96 H96        21.7403   25.7733   -0.9024 H         1 UNK         0.0788 
     97 H97        22.7038   24.7048   -1.9245 H         1 UNK         0.0788 
     98 H98        22.1926   26.2777   -2.5203 H         1 UNK         0.0788 
     99 H99        23.6774   24.8495    0.3649 H         1 UNK         0.2993 
    100 H100       25.3216   25.8114    3.0772 H         1 UNK         0.0949 
    101 H101       24.2915   23.3100    1.6234 H         1 UNK         0.0767 
    102 H102       24.3964   23.5345    3.3626 H         1 UNK         0.0767 
    103 H103       23.2843   24.5147    2.4335 H         1 UNK         0.0767 
    104 H104       27.1564   24.5347    3.2308 H         1 UNK         0.3013 
    105 H105       29.7473   31.0342   -1.4003 H         1 UNK         0.3121 
    106 H106       27.3388   32.5953   -1.9314 H         1 UNK         0.0774 
    107 H107       30.1816   33.4645   -1.1615 H         1 UNK         0.0815 
    108 H108       28.8910   34.5307   -1.6964 H         1 UNK         0.0815 
    109 H109       29.5477   33.3367   -2.8029 H         1 UNK         0.0815 
    110 H110       29.4085   31.8215    0.8712 H         1 UNK         0.2987 
    111 H111       27.1757   32.1575    2.6877 H         1 UNK         0.0949 
    112 H112       29.8137   33.6844    3.1348 H         1 UNK         0.0806 
    113 H113       28.2379   34.4243    2.8571 H         1 UNK         0.0806 
    114 H114       28.5298   33.5003    4.3231 H         1 UNK         0.0806 
    115 H115       27.2334   30.3128    3.8945 H         1 UNK         0.3010 
    116 H116       29.4453   28.4305    3.5312 H         1 UNK         0.0829 
    117 H117       27.8447   26.8622    4.6590 H         1 UNK         0.0813 
    118 H118       26.7081   28.1815    4.8843 H         1 UNK         0.0813 
    119 H119       27.1380   27.6469    3.2578 H         1 UNK         0.0813 
    120 H120       30.9734   29.9137    4.7005 H         1 UNK         0.3038 
    121 H121       31.3649   29.0272    7.4295 H         1 UNK         0.0769 
    122 H122       30.8686   32.0118    6.8292 H         1 UNK         0.0811 
    123 H123       31.4289   31.3722    8.3682 H         1 UNK         0.0811 
    124 H124       29.8170   30.9864    7.8017 H         1 UNK         0.0811 
    125 H125       33.4089   30.0747    8.2649 H         1 UNK         0.3204 
    126 H126       35.5712   30.4758    8.2224 H         1 UNK         0.0748 
    127 H127       36.4416   32.2198    6.7232 H         1 UNK         0.0771 
    128 H128       35.0827   32.0240    5.6271 H         1 UNK         0.0771 
    129 H129       34.8273   32.6590    7.2520 H         1 UNK         0.0771 
    130 H130       34.8642   27.9471    7.2115 H         1 UNK         0.2980 
    131 H131       36.6100   27.1941    5.0499 H         1 UNK         0.0545 
    132 H132       39.6981   26.2725    6.5585 H         1 UNK         0.3459 
    133 H133       38.6934   26.1402    5.1394 H         1 UNK         0.3459 
    134 H134       35.2949   25.5190    7.2515 H         1 UNK         0.0616 
    135 H135       36.2216   24.8318    5.9456 H         1 UNK         0.0616 
    136 H136       35.6359   25.5961    3.2951 H         1 UNK         0.0634 
    137 H137       35.2276   23.9944    3.8686 H         1 UNK         0.0634 
@<TRIPOS>BOND
     1    1    2 1    
     2    1   72 1    
     3    1   73 1    
     4    1   74 1    
     5    2    3 2    
     6    2    4 am   BACKBONE|DICT|INTERRES
     7    4    5 1    
     8    4   75 1    
     9    5    6 1    
    10    5   35 1    
    11    5   76 1    
    12    6    7 1    
    13    6   77 1    
    14    6   78 1    
    15    7    8 1    
    16    8    9 1    
    17    8   79 1    
    18    8   80 1    
    19    9   10 ar   
    20    9   14 ar   
    21   10   11 ar   
    22   10   81 1    
    23   11   12 ar   
    24   11   71 1    
    25   12   13 ar   
    26   12   82 1    
    27   13   14 ar   
    28   13   15 1    
    29   14   83 1    
    30   15   16 1    
    31   15   84 1    
    32   15   85 1    
    33   16   17 1    
    34   17   18 1    
    35   17   86 1    
    36   17   87 1    
    37   18   19 1    
    38   18   37 1    
    39   18   88 1    
    40   19   20 am   BACKBONE|DICT|INTERRES
    41   19   89 1    
    42   20   21 2    
    43   20   22 1    
    44   22   23 1    
    45   22   24 1    
    46   22   90 1    
    47   23   91 1    
    48   23   92 1    
    49   23   93 1    
    50   24   25 am   BACKBONE|DICT|INTERRES
    51   24   94 1    
    52   25   26 2    
    53   25   27 1    
    54   27   28 1    
    55   27   29 1    
    56   27   95 1    
    57   28   96 1    
    58   28   97 1    
    59   28   98 1    
    60   29   30 am   BACKBONE|DICT|INTERRES
    61   29   99 1    
    62   30   31 2    
    63   30   32 1    
    64   32   33 1    
    65   32   34 1    
    66   32  100 1    
    67   33  101 1    
    68   33  102 1    
    69   33  103 1    
    70   34   35 am   BACKBONE|DICT|INTERRES
    71   34  104 1    
    72   35   36 2    
    73   37   38 2    
    74   37   39 am   BACKBONE|DICT|INTERRES
    75   39   40 1    
    76   39  105 1    
    77   40   41 1    
    78   40   42 1    
    79   40  106 1    
    80   41  107 1    
    81   41  108 1    
    82   41  109 1    
    83   42   43 2    
    84   42   44 am   BACKBONE|DICT|INTERRES
    85   44   45 1    
    86   44  110 1    
    87   45   46 1    
    88   45   47 1    
    89   45  111 1    
    90   46  112 1    
    91   46  113 1    
    92   46  114 1    
    93   47   48 2    
    94   47   49 am   BACKBONE|DICT|INTERRES
    95   49   50 1    
    96   49  115 1    
    97   50   51 1    
    98   50   52 1    
    99   50  116 1    
   100   51  117 1    
   101   51  118 1    
   102   51  119 1    
   103   52   53 2    
   104   52   54 am   BACKBONE|DICT|INTERRES
   105   54   55 1    
   106   54  120 1    
   107   55   56 1    
   108   55   57 1    
   109   55  121 1    
   110   56  122 1    
   111   56  123 1    
   112   56  124 1    
   113   57   58 2    
   114   57   59 am   BACKBONE|DICT|INTERRES
   115   59   60 1    
   116   59  125 1    
   117   60   61 1    
   118   60   62 1    
   119   60  126 1    
   120   61  127 1    
   121   61  128 1    
   122   61  129 1    
   123   62   63 2    
   124   62   64 am   BACKBONE|DICT|INTERRES
   125   64   65 1    
   126   64  130 1    
   127   65   66 1    
   128   65   69 1    
   129   65  131 1    
   130   66   67 am   BACKBONE|DICT|INTERRES
   131   66   68 2    
   132   67  132 1    
   133   67  133 1    
   134   69   70 1    
   135   69  134 1    
   136   69  135 1    
   137   70   71 1    
   138   71  136 1    
   139   71  137 1    
@<TRIPOS>SUBSTRUCTURE
     1 UNK         1 GROUP             0       ****    0 ROOT    
