@<TRIPOS>MOLECULE
3R136
137   139    1
SMALL
USER_CHARGES


@<TRIPOS>ATOM
      1 CA         27.3002   23.5461    6.1281 C.3       0 UNK        -0.1979 
      2 C          27.2929   23.5789    4.6075 C.2       0 UNK         0.4864 
      3 O          26.4695   24.2775    4.0154 O.2       0 UNK        -0.5359 
      4 N          28.2188   22.8474    3.9694 N.am      1 UNK        -0.4318 
      5 CA         28.3735   22.7364    2.5097 C.3       1 UNK         0.0824 
      6 C6         29.4321   21.6776    2.1139 C.3       12 UNK        -0.0944 
      7 S7         31.0715   21.9314    2.8850 S.3       12 UNK        -0.2672 
      8 C8         32.1704   22.0473    1.4379 C.3       12 UNK         0.0333 
      9 C9         32.3280   23.4778    0.9407 C.ar      12 UNK        -0.0807 
     10 C10        33.3030   24.3048    1.5057 C.ar      12 UNK        -0.0894 
     11 C11        33.5134   25.5949    1.0123 C.ar      12 UNK        -0.0804 
     12 C12        32.7279   26.0638   -0.0439 C.ar      12 UNK        -0.0824 
     13 C13        31.7312   25.2565   -0.6079 C.ar      12 UNK        -0.0762 
     14 C14        31.5444   23.9603   -0.1126 C.ar      12 UNK        -0.0782 
     15 C15        30.8820   25.7420   -1.7817 C.3       12 UNK         0.0230 
     16 S16        30.4353   27.5095   -1.6920 S.3       12 UNK        -0.2608 
     17 C17        29.5499   27.7327   -3.2745 C.3       12 UNK        -0.0989 
     18 CA         28.0360   28.0413   -3.1302 C.3       5 UNK         0.0716 
     19 N          27.3437   27.0258   -2.3299 N.am      5 UNK        -0.4135 
     20 C          26.2560   26.3459   -2.7159 C.2       4 UNK         0.5031 
     21 O          25.7325   26.4556   -3.8251 O.2       4 UNK        -0.5229 
     22 CA         25.6267   25.3897   -1.6872 C.3       4 UNK         0.0329 
     23 CB         26.1645   23.9634   -1.8840 C.3       4 UNK        -0.2001 
     24 N          25.8348   25.8121   -0.2979 N.am      4 UNK        -0.4303 
     25 C          25.2633   26.8953    0.2545 C.2       3 UNK         0.5044 
     26 O          24.5057   27.6476   -0.3579 O.2       3 UNK        -0.5152 
     27 CA         25.6152   27.2332    1.7158 C.3       3 UNK         0.0319 
     28 CB         24.5378   26.6889    2.6659 C.3       3 UNK        -0.2001 
     29 N          26.9292   26.7446    2.1383 N.am      3 UNK        -0.4354 
     30 C          28.0921   27.1396    1.5959 C.2       2 UNK         0.4964 
     31 O          28.1650   27.9716    0.6926 O.2       2 UNK        -0.5047 
     32 CA         29.3772   26.4459    2.0852 C.3       2 UNK         0.0288 
     33 CB         30.0123   27.2312    3.2403 C.3       2 UNK        -0.2113 
     34 N          29.1780   25.0620    2.5181 N.am      2 UNK        -0.4145 
     35 C          28.6210   24.0804    1.7939 C.2       1 UNK         0.5006 
     36 O          28.2555   24.2146    0.6253 O.2       1 UNK        -0.5103 
     37 C          27.7542   29.4718   -2.6142 C.2       5 UNK         0.5055 
     38 O          28.3472   30.4206   -3.1310 O.2       5 UNK        -0.5220 
     39 N          26.8480   29.6088   -1.6310 N.am      6 UNK        -0.4450 
     40 CA         26.4394   30.8443   -0.9497 C.3       6 UNK         0.0367 
     41 CB         25.6778   31.7776   -1.9148 C.3       6 UNK        -0.1929 
     42 C          27.5944   31.5540   -0.2111 C.2       6 UNK         0.5070 
     43 O          27.6053   32.7835   -0.1219 O.2       6 UNK        -0.5237 
     44 N          28.5395   30.7683    0.3148 N.am      7 UNK        -0.4739 
     45 CA         29.6527   31.2231    1.1433 C.3       7 UNK         0.0276 
     46 CB         30.8898   30.3742    0.7983 C.3       7 UNK        -0.1927 
     47 C          29.2940   31.0941    2.6327 C.2       7 UNK         0.5013 
     48 O          28.3257   30.4152    2.9866 O.2       7 UNK        -0.5193 
     49 N          30.0970   31.7361    3.4893 N.am      8 UNK        -0.4253 
     50 CA         30.0265   31.5801    4.9429 C.3       8 UNK         0.0242 
     51 CB         30.7673   32.7478    5.6150 C.3       8 UNK        -0.2000 
     52 C          30.6424   30.2370    5.3673 C.2       8 UNK         0.4948 
     53 O          31.6546   29.8287    4.7928 O.2       8 UNK        -0.5275 
     54 N          30.0395   29.5927    6.3758 N.am      9 UNK        -0.4246 
     55 CA         30.5306   28.3489    6.9772 C.3       9 UNK         0.0261 
     56 CB         29.4780   27.8072    7.9580 C.3       9 UNK        -0.1959 
     57 C          31.8826   28.5538    7.6828 C.2       9 UNK         0.5033 
     58 O          32.1107   29.6251    8.2511 O.2       9 UNK        -0.5390 
     59 N          32.7349   27.5180    7.6327 N.am      10 UNK        -0.4215 
     60 CA         34.1484   27.5182    8.0359 C.3       10 UNK         0.0240 
     61 CB         34.3077   27.7421    9.5561 C.3       10 UNK        -0.1982 
     62 C          34.9524   28.5159    7.1796 C.2       10 UNK         0.4970 
     63 O          35.4309   29.5298    7.6919 O.2       10 UNK        -0.4916 
     64 N          35.0209   28.2098    5.8762 N.am      11 UNK        -0.4279 
     65 CA         35.6116   29.0142    4.7944 C.3       11 UNK         0.1003 
     66 C          37.0308   29.5673    5.1075 C.2       11 UNK         0.5709 
     67 N          37.2950   30.8262    4.7843 N.am      11 UNK        -0.7358 
     68 O          37.9041   28.8485    5.5911 O.2       11 UNK        -0.4999 
     69 C69        35.6533   28.2146    3.4641 C.3       12 UNK        -0.0954 
     70 S70        34.0518   27.4988    2.9606 S.3       12 UNK        -0.2268 
     71 C71        34.6262   26.4592    1.5842 C.3       12 UNK         0.0203 
     72 H72        27.4605   24.5487    6.5239 H         1 UNK         0.0888 
     73 H73        26.3423   23.1824    6.4987 H         1 UNK         0.0888 
     74 H74        28.0839   22.8971    6.5187 H         1 UNK         0.0888 
     75 H75        28.8822   22.3083    4.5088 H         1 UNK         0.3017 
     76 H76        27.4116   22.3824    2.1325 H         1 UNK         0.0873 
     77 H77        29.5272   21.6210    1.0279 H         1 UNK         0.0745 
     78 H78        29.0811   20.6910    2.4201 H         1 UNK         0.0745 
     79 H79        31.8158   21.3956    0.6380 H         1 UNK         0.0705 
     80 H80        33.1491   21.6567    1.7213 H         1 UNK         0.0705 
     81 H81        33.9165   23.9342    2.3158 H         1 UNK         0.1334 
     82 H82        32.9025   27.0581   -0.4311 H         1 UNK         0.1417 
     83 H83        30.7912   23.3214   -0.5537 H         1 UNK         0.1562 
     84 H84        29.9597   25.1615   -1.8436 H         1 UNK         0.0748 
     85 H85        31.4346   25.5585   -2.7040 H         1 UNK         0.0748 
     86 H86        29.6693   26.8332   -3.8801 H         1 UNK         0.0940 
     87 H87        30.0524   28.5200   -3.8396 H         1 UNK         0.0940 
     88 H88        27.6285   28.0356   -4.1432 H         1 UNK         0.0703 
     89 H89        27.7130   26.8815   -1.3983 H         1 UNK         0.3081 
     90 H90        24.5501   25.3722   -1.8702 H         1 UNK         0.0719 
     91 H91        25.7327   23.2700   -1.1623 H         1 UNK         0.0809 
     92 H92        25.9189   23.5906   -2.8792 H         1 UNK         0.0809 
     93 H93        27.2496   23.9219   -1.7832 H         1 UNK         0.0809 
     94 H94        26.4954   25.2680    0.2474 H         1 UNK         0.2990 
     95 H95        25.6294   28.3218    1.8042 H         1 UNK         0.0690 
     96 H96        23.5538   27.0829    2.4079 H         1 UNK         0.0788 
     97 H97        24.7395   26.9714    3.6993 H         1 UNK         0.0788 
     98 H98        24.4756   25.6007    2.6224 H         1 UNK         0.0788 
     99 H99        26.9361   26.0188    2.8472 H         1 UNK         0.2993 
    100 H100       30.0768   26.4341    1.2495 H         1 UNK         0.0949 
    101 H101       29.3539   27.2743    4.1085 H         1 UNK         0.0767 
    102 H102       30.9600   26.7902    3.5501 H         1 UNK         0.0767 
    103 H103       30.2232   28.2577    2.9448 H         1 UNK         0.0767 
    104 H104       29.4546   24.8409    3.4627 H         1 UNK         0.3013 
    105 H105       26.4116   28.7667   -1.2817 H         1 UNK         0.3121 
    106 H106       25.7383   30.5361   -0.1725 H         1 UNK         0.0774 
    107 H107       26.3315   32.1795   -2.6894 H         1 UNK         0.0815 
    108 H108       25.2481   32.6260   -1.3810 H         1 UNK         0.0815 
    109 H109       24.8559   31.2560   -2.4051 H         1 UNK         0.0815 
    110 H110       28.4040   29.7590    0.2839 H         1 UNK         0.2987 
    111 H111       29.8753   32.2713    0.9319 H         1 UNK         0.0949 
    112 H112       30.7015   29.3093    0.9350 H         1 UNK         0.0806 
    113 H113       31.1884   30.5210   -0.2399 H         1 UNK         0.0806 
    114 H114       31.7451   30.6368    1.4220 H         1 UNK         0.0806 
    115 H115       30.8972   32.2355    3.1293 H         1 UNK         0.3010 
    116 H116       28.9785   31.6090    5.2501 H         1 UNK         0.0829 
    117 H117       30.3304   33.7079    5.3395 H         1 UNK         0.0813 
    118 H118       30.7155   32.6678    6.7018 H         1 UNK         0.0813 
    119 H119       31.8234   32.7669    5.3418 H         1 UNK         0.0813 
    120 H120       29.2378   30.0192    6.8166 H         1 UNK         0.3038 
    121 H121       30.6648   27.6223    6.1735 H         1 UNK         0.0769 
    122 H122       29.2933   28.5046    8.7763 H         1 UNK         0.0811 
    123 H123       29.8037   26.8652    8.4014 H         1 UNK         0.0811 
    124 H124       28.5286   27.6161    7.4572 H         1 UNK         0.0811 
    125 H125       32.4240   26.6796    7.1613 H         1 UNK         0.3204 
    126 H126       34.5394   26.5238    7.8138 H         1 UNK         0.0748 
    127 H127       35.3531   27.6485    9.8523 H         1 UNK         0.0771 
    128 H128       33.9739   28.7327    9.8659 H         1 UNK         0.0771 
    129 H129       33.7415   27.0055   10.1259 H         1 UNK         0.0771 
    130 H130       34.5759   27.3610    5.5624 H         1 UNK         0.2980 
    131 H131       34.9404   29.8638    4.6553 H         1 UNK         0.0545 
    132 H132       38.2158   31.1947    4.9643 H         1 UNK         0.3459 
    133 H133       36.5903   31.4184    4.3732 H         1 UNK         0.3459 
    134 H134       35.9991   28.8553    2.6505 H         1 UNK         0.0616 
    135 H135       36.3772   27.4007    3.5419 H         1 UNK         0.0616 
    136 H136       35.4437   25.8235    1.9280 H         1 UNK         0.0634 
    137 H137       35.0427   27.0980    0.8038 H         1 UNK         0.0634 
@<TRIPOS>BOND
     1    1    2 1    
     2    1   72 1    
     3    1   73 1    
     4    1   74 1    
     5    2    3 2    
     6    2    4 am   BACKBONE|DICT|INTERRES
     7    4    5 1    
     8    4   75 1    
     9    5    6 1    
    10    5   35 1    
    11    5   76 1    
    12    6    7 1    
    13    6   77 1    
    14    6   78 1    
    15    7    8 1    
    16    8    9 1    
    17    8   79 1    
    18    8   80 1    
    19    9   10 ar   
    20    9   14 ar   
    21   10   11 ar   
    22   10   81 1    
    23   11   12 ar   
    24   11   71 1    
    25   12   13 ar   
    26   12   82 1    
    27   13   14 ar   
    28   13   15 1    
    29   14   83 1    
    30   15   16 1    
    31   15   84 1    
    32   15   85 1    
    33   16   17 1    
    34   17   18 1    
    35   17   86 1    
    36   17   87 1    
    37   18   19 1    
    38   18   37 1    
    39   18   88 1    
    40   19   20 am   BACKBONE|DICT|INTERRES
    41   19   89 1    
    42   20   21 2    
    43   20   22 1    
    44   22   23 1    
    45   22   24 1    
    46   22   90 1    
    47   23   91 1    
    48   23   92 1    
    49   23   93 1    
    50   24   25 am   BACKBONE|DICT|INTERRES
    51   24   94 1    
    52   25   26 2    
    53   25   27 1    
    54   27   28 1    
    55   27   29 1    
    56   27   95 1    
    57   28   96 1    
    58   28   97 1    
    59   28   98 1    
    60   29   30 am   BACKBONE|DICT|INTERRES
    61   29   99 1    
    62   30   31 2    
    63   30   32 1    
    64   32   33 1    
    65   32   34 1    
    66   32  100 1    
    67   33  101 1    
    68   33  102 1    
    69   33  103 1    
    70   34   35 am   BACKBONE|DICT|INTERRES
    71   34  104 1    
    72   35   36 2    
    73   37   38 2    
    74   37   39 am   BACKBONE|DICT|INTERRES
    75   39   40 1    
    76   39  105 1    
    77   40   41 1    
    78   40   42 1    
    79   40  106 1    
    80   41  107 1    
    81   41  108 1    
    82   41  109 1    
    83   42   43 2    
    84   42   44 am   BACKBONE|DICT|INTERRES
    85   44   45 1    
    86   44  110 1    
    87   45   46 1    
    88   45   47 1    
    89   45  111 1    
    90   46  112 1    
    91   46  113 1    
    92   46  114 1    
    93   47   48 2    
    94   47   49 am   BACKBONE|DICT|INTERRES
    95   49   50 1    
    96   49  115 1    
    97   50   51 1    
    98   50   52 1    
    99   50  116 1    
   100   51  117 1    
   101   51  118 1    
   102   51  119 1    
   103   52   53 2    
   104   52   54 am   BACKBONE|DICT|INTERRES
   105   54   55 1    
   106   54  120 1    
   107   55   56 1    
   108   55   57 1    
   109   55  121 1    
   110   56  122 1    
   111   56  123 1    
   112   56  124 1    
   113   57   58 2    
   114   57   59 am   BACKBONE|DICT|INTERRES
   115   59   60 1    
   116   59  125 1    
   117   60   61 1    
   118   60   62 1    
   119   60  126 1    
   120   61  127 1    
   121   61  128 1    
   122   61  129 1    
   123   62   63 2    
   124   62   64 am   BACKBONE|DICT|INTERRES
   125   64   65 1    
   126   64  130 1    
   127   65   66 1    
   128   65   69 1    
   129   65  131 1    
   130   66   67 am   BACKBONE|DICT|INTERRES
   131   66   68 2    
   132   67  132 1    
   133   67  133 1    
   134   69   70 1    
   135   69  134 1    
   136   69  135 1    
   137   70   71 1    
   138   71  136 1    
   139   71  137 1    
@<TRIPOS>SUBSTRUCTURE
     1 UNK         1 GROUP             0       ****    0 ROOT    
