@<TRIPOS>MOLECULE
3R136
137   139    1
SMALL
USER_CHARGES


@<TRIPOS>ATOM
      1 CA         32.2589   22.8253   -3.3534 C.3       0 UNK        -0.1979 
      2 C          31.7547   24.1594   -2.8232 C.2       0 UNK         0.4864 
      3 O          32.0036   25.1970   -3.4392 O.2       0 UNK        -0.5359 
      4 N          31.0538   24.1405   -1.6830 N.am      1 UNK        -0.4318 
      5 CA         30.4175   25.3077   -1.0683 C.3       1 UNK         0.0824 
      6 C6         30.1478   25.0879    0.4457 C.3       12 UNK        -0.0944 
      7 S7         29.2002   23.5720    0.8461 S.3       12 UNK        -0.2672 
      8 C8         30.5095   22.4270    1.3941 C.3       12 UNK         0.0333 
      9 C9         30.8598   22.6457    2.8566 C.ar      12 UNK        -0.0807 
     10 C10        31.9543   23.4376    3.2164 C.ar      12 UNK        -0.0894 
     11 C11        32.2381   23.6802    4.5636 C.ar      12 UNK        -0.0804 
     12 C12        31.4350   23.1079    5.5530 C.ar      12 UNK        -0.0824 
     13 C13        30.3380   22.3172    5.2039 C.ar      12 UNK        -0.0762 
     14 C14        30.0665   22.0724    3.8544 C.ar      12 UNK        -0.0782 
     15 C15        29.4044   21.7909    6.2817 C.3       12 UNK         0.0230 
     16 S16        27.7494   22.5423    6.1520 S.3       12 UNK        -0.2608 
     17 C17        28.0983   24.3326    6.3312 C.3       12 UNK        -0.0989 
     18 CA         28.3600   25.0859    4.9883 C.3       5 UNK         0.0716 
     19 N          27.4250   24.7287    3.9181 N.am      5 UNK        -0.4135 
     20 C          26.1037   24.9430    3.9006 C.2       4 UNK         0.5031 
     21 O          25.4685   25.5020    4.7973 O.2       4 UNK        -0.5229 
     22 CA         25.3752   24.4618    2.6333 C.3       4 UNK         0.0329 
     23 CB         24.0631   23.7376    2.9828 C.3       4 UNK        -0.2001 
     24 N          25.0908   25.5433    1.6853 N.am      4 UNK        -0.4303 
     25 C          25.9845   26.4045    1.1818 C.2       3 UNK         0.5044 
     26 O          27.1694   26.4666    1.5213 O.2       3 UNK        -0.5152 
     27 CA         25.4770   27.3625    0.1030 C.3       3 UNK         0.0319 
     28 CB         25.0231   28.6953    0.7202 C.3       3 UNK        -0.2001 
     29 N          26.5952   27.5767   -0.8080 N.am      3 UNK        -0.4354 
     30 C          26.5288   27.6002   -2.1429 C.2       2 UNK         0.4964 
     31 O          25.4726   27.6385   -2.7751 O.2       2 UNK        -0.5047 
     32 CA         27.8622   27.5431   -2.9130 C.3       2 UNK         0.0288 
     33 CB         28.2436   28.9213   -3.4776 C.3       2 UNK        -0.2113 
     34 N          28.9798   27.0070   -2.1232 N.am      2 UNK        -0.4145 
     35 C          29.1519   25.7021   -1.8626 C.2       1 UNK         0.5006 
     36 O          28.3699   24.8258   -2.2423 O.2       1 UNK        -0.5103 
     37 C          28.4873   26.6165    5.1794 C.2       5 UNK         0.5055 
     38 O          28.7202   27.0671    6.3033 O.2       5 UNK        -0.5220 
     39 N          28.3185   27.3965    4.1004 N.am      6 UNK        -0.4450 
     40 CA         28.3228   28.8586    4.1265 C.3       6 UNK         0.0367 
     41 CB         26.9409   29.3727    4.5925 C.3       6 UNK        -0.1929 
     42 C          28.7762   29.4229    2.7675 C.2       6 UNK         0.5070 
     43 O          29.6229   28.8177    2.1085 O.2       6 UNK        -0.5237 
     44 N          28.2170   30.5819    2.3893 N.am      7 UNK        -0.4739 
     45 CA         28.5218   31.3900    1.2036 C.3       7 UNK         0.0276 
     46 CB         28.2162   30.6315   -0.1065 C.3       7 UNK        -0.1927 
     47 C          29.9297   32.0093    1.2752 C.2       7 UNK         0.5013 
     48 O          30.2421   32.6474    2.2837 O.2       7 UNK        -0.5193 
     49 N          30.7233   31.8611    0.2030 N.am      8 UNK        -0.4253 
     50 CA         32.0441   32.4633   -0.0063 C.3       8 UNK         0.0242 
     51 CB         32.6456   31.9209   -1.3136 C.3       8 UNK        -0.2000 
     52 C          33.0001   32.2266    1.1728 C.2       8 UNK         0.4948 
     53 O          33.3245   31.0745    1.4672 O.2       8 UNK        -0.5275 
     54 N          33.3748   33.3221    1.8513 N.am      9 UNK        -0.4246 
     55 CA         34.2074   33.3783    3.0614 C.3       9 UNK         0.0261 
     56 CB         35.6684   33.0140    2.7194 C.3       9 UNK        -0.1959 
     57 C          33.6579   32.5436    4.2390 C.2       9 UNK         0.5033 
     58 O          34.4448   32.0702    5.0611 O.2       9 UNK        -0.5390 
     59 N          32.3305   32.3331    4.2781 N.am      10 UNK        -0.4215 
     60 CA         31.6095   31.4281    5.1830 C.3       10 UNK         0.0240 
     61 CB         31.5862   31.9946    6.6186 C.3       10 UNK        -0.1982 
     62 C          32.1363   29.9786    5.1080 C.2       10 UNK         0.4970 
     63 O          32.2607   29.3241    6.1417 O.2       10 UNK        -0.4916 
     64 N          32.4640   29.5440    3.8834 N.am      11 UNK        -0.4279 
     65 CA         33.1239   28.2860    3.5066 C.3       11 UNK         0.1003 
     66 C          34.6576   28.2324    3.7826 C.2       11 UNK         0.5709 
     67 N          35.2854   29.2700    4.3256 N.am      11 UNK        -0.7358 
     68 O          35.3065   27.2432    3.4503 O.2       11 UNK        -0.4999 
     69 C69        32.3225   27.0023    3.8930 C.3       12 UNK        -0.0954 
     70 S70        32.7504   26.2193    5.4926 S.3       12 UNK        -0.2268 
     71 C71        33.3818   24.5973    4.9625 C.3       12 UNK         0.0203 
     72 H72        31.8480   22.6365   -4.3448 H         1 UNK         0.0888 
     73 H73        33.3457   22.8389   -3.4313 H         1 UNK         0.0888 
     74 H74        31.9761   21.9957   -2.7056 H         1 UNK         0.0888 
     75 H75        30.8231   23.2569   -1.2532 H         1 UNK         0.3017 
     76 H76        31.1230   26.1384   -1.1448 H         1 UNK         0.0873 
     77 H77        29.6235   25.9475    0.8653 H         1 UNK         0.0745 
     78 H78        31.0994   25.0589    0.9759 H         1 UNK         0.0745 
     79 H79        31.3941   22.5342    0.7650 H         1 UNK         0.0705 
     80 H80        30.1600   21.4029    1.2538 H         1 UNK         0.0705 
     81 H81        32.5706   23.8853    2.4491 H         1 UNK         0.1334 
     82 H82        31.6416   23.3173    6.5939 H         1 UNK         0.1417 
     83 H83        29.2069   21.4748    3.5816 H         1 UNK         0.1562 
     84 H84        29.8063   21.9785    7.2786 H         1 UNK         0.0748 
     85 H85        29.3137   20.7083    6.1832 H         1 UNK         0.0748 
     86 H86        28.9456   24.4616    7.0073 H         1 UNK         0.0940 
     87 H87        27.2412   24.7743    6.8429 H         1 UNK         0.0940 
     88 H88        29.3384   24.7819    4.6200 H         1 UNK         0.0703 
     89 H89        27.8495   24.3189    3.0969 H         1 UNK         0.3081 
     90 H90        26.0195   23.7446    2.1198 H         1 UNK         0.0719 
     91 H91        23.3366   24.4131    3.4365 H         1 UNK         0.0809 
     92 H92        23.6045   23.2944    2.0987 H         1 UNK         0.0809 
     93 H93        24.2428   22.9290    3.6929 H         1 UNK         0.0809 
     94 H94        24.1369   25.6035    1.3602 H         1 UNK         0.2990 
     95 H95        24.6431   26.8970   -0.4271 H         1 UNK         0.0690 
     96 H96        24.7515   29.4174   -0.0498 H         1 UNK         0.0788 
     97 H97        25.8019   29.1387    1.3409 H         1 UNK         0.0788 
     98 H98        24.1477   28.5512    1.3543 H         1 UNK         0.0788 
     99 H99        27.4994   27.4814   -0.3628 H         1 UNK         0.2993 
    100 H100       27.6991   26.8767   -3.7634 H         1 UNK         0.0949 
    101 H101       29.1096   28.8511   -4.1362 H         1 UNK         0.0767 
    102 H102       27.4268   29.3430   -4.0652 H         1 UNK         0.0767 
    103 H103       28.4804   29.6347   -2.6914 H         1 UNK         0.0767 
    104 H104       29.6685   27.6701   -1.7982 H         1 UNK         0.3013 
    105 H105       28.1403   26.9767    3.1900 H         1 UNK         0.3121 
    106 H106       29.0729   29.1887    4.8479 H         1 UNK         0.0774 
    107 H107       26.9398   30.4522    4.7458 H         1 UNK         0.0815 
    108 H108       26.1588   29.1313    3.8715 H         1 UNK         0.0815 
    109 H109       26.6538   28.9269    5.5451 H         1 UNK         0.0815 
    110 H110       27.5551   31.0026    3.0262 H         1 UNK         0.2987 
    111 H111       27.8384   32.2398    1.2409 H         1 UNK         0.0949 
    112 H112       27.1768   30.3126   -0.1384 H         1 UNK         0.0806 
    113 H113       28.3614   31.2746   -0.9752 H         1 UNK         0.0806 
    114 H114       28.8405   29.7466   -0.2300 H         1 UNK         0.0806 
    115 H115       30.3745   31.2942   -0.5548 H         1 UNK         0.3010 
    116 H116       31.8914   33.5377   -0.1266 H         1 UNK         0.0829 
    117 H117       32.0166   32.1584   -2.1718 H         1 UNK         0.0813 
    118 H118       33.6271   32.3581   -1.5024 H         1 UNK         0.0813 
    119 H119       32.7738   30.8380   -1.2793 H         1 UNK         0.0813 
    120 H120       33.0163   34.2143    1.5380 H         1 UNK         0.3038 
    121 H121       34.1935   34.4162    3.3972 H         1 UNK         0.0769 
    122 H122       36.3268   33.1846    3.5720 H         1 UNK         0.0811 
    123 H123       36.0467   33.6188    1.8955 H         1 UNK         0.0811 
    124 H124       35.7665   31.9646    2.4383 H         1 UNK         0.0811 
    125 H125       31.7597   32.7235    3.5313 H         1 UNK         0.3204 
    126 H126       30.5795   31.3952    4.8250 H         1 UNK         0.0748 
    127 H127       30.9527   31.3889    7.2678 H         1 UNK         0.0771 
    128 H128       32.5822   32.0143    7.0621 H         1 UNK         0.0771 
    129 H129       31.1904   33.0100    6.6373 H         1 UNK         0.0771 
    130 H130       32.3933   30.1999    3.1131 H         1 UNK         0.2980 
    131 H131       33.0786   28.3309    2.4178 H         1 UNK         0.0545 
    132 H132       34.7869   30.1111    4.5922 H         1 UNK         0.3459 
    133 H133       36.2794   29.2122    4.4757 H         1 UNK         0.3459 
    134 H134       31.2528   27.2132    3.8941 H         1 UNK         0.0616 
    135 H135       32.4594   26.2635    3.1037 H         1 UNK         0.0616 
    136 H136       33.9375   24.1480    5.7867 H         1 UNK         0.0634 
    137 H137       34.0928   24.7245    4.1446 H         1 UNK         0.0634 
@<TRIPOS>BOND
     1    1    2 1    
     2    1   72 1    
     3    1   73 1    
     4    1   74 1    
     5    2    3 2    
     6    2    4 am   BACKBONE|DICT|INTERRES
     7    4    5 1    
     8    4   75 1    
     9    5    6 1    
    10    5   35 1    
    11    5   76 1    
    12    6    7 1    
    13    6   77 1    
    14    6   78 1    
    15    7    8 1    
    16    8    9 1    
    17    8   79 1    
    18    8   80 1    
    19    9   10 ar   
    20    9   14 ar   
    21   10   11 ar   
    22   10   81 1    
    23   11   12 ar   
    24   11   71 1    
    25   12   13 ar   
    26   12   82 1    
    27   13   14 ar   
    28   13   15 1    
    29   14   83 1    
    30   15   16 1    
    31   15   84 1    
    32   15   85 1    
    33   16   17 1    
    34   17   18 1    
    35   17   86 1    
    36   17   87 1    
    37   18   19 1    
    38   18   37 1    
    39   18   88 1    
    40   19   20 am   BACKBONE|DICT|INTERRES
    41   19   89 1    
    42   20   21 2    
    43   20   22 1    
    44   22   23 1    
    45   22   24 1    
    46   22   90 1    
    47   23   91 1    
    48   23   92 1    
    49   23   93 1    
    50   24   25 am   BACKBONE|DICT|INTERRES
    51   24   94 1    
    52   25   26 2    
    53   25   27 1    
    54   27   28 1    
    55   27   29 1    
    56   27   95 1    
    57   28   96 1    
    58   28   97 1    
    59   28   98 1    
    60   29   30 am   BACKBONE|DICT|INTERRES
    61   29   99 1    
    62   30   31 2    
    63   30   32 1    
    64   32   33 1    
    65   32   34 1    
    66   32  100 1    
    67   33  101 1    
    68   33  102 1    
    69   33  103 1    
    70   34   35 am   BACKBONE|DICT|INTERRES
    71   34  104 1    
    72   35   36 2    
    73   37   38 2    
    74   37   39 am   BACKBONE|DICT|INTERRES
    75   39   40 1    
    76   39  105 1    
    77   40   41 1    
    78   40   42 1    
    79   40  106 1    
    80   41  107 1    
    81   41  108 1    
    82   41  109 1    
    83   42   43 2    
    84   42   44 am   BACKBONE|DICT|INTERRES
    85   44   45 1    
    86   44  110 1    
    87   45   46 1    
    88   45   47 1    
    89   45  111 1    
    90   46  112 1    
    91   46  113 1    
    92   46  114 1    
    93   47   48 2    
    94   47   49 am   BACKBONE|DICT|INTERRES
    95   49   50 1    
    96   49  115 1    
    97   50   51 1    
    98   50   52 1    
    99   50  116 1    
   100   51  117 1    
   101   51  118 1    
   102   51  119 1    
   103   52   53 2    
   104   52   54 am   BACKBONE|DICT|INTERRES
   105   54   55 1    
   106   54  120 1    
   107   55   56 1    
   108   55   57 1    
   109   55  121 1    
   110   56  122 1    
   111   56  123 1    
   112   56  124 1    
   113   57   58 2    
   114   57   59 am   BACKBONE|DICT|INTERRES
   115   59   60 1    
   116   59  125 1    
   117   60   61 1    
   118   60   62 1    
   119   60  126 1    
   120   61  127 1    
   121   61  128 1    
   122   61  129 1    
   123   62   63 2    
   124   62   64 am   BACKBONE|DICT|INTERRES
   125   64   65 1    
   126   64  130 1    
   127   65   66 1    
   128   65   69 1    
   129   65  131 1    
   130   66   67 am   BACKBONE|DICT|INTERRES
   131   66   68 2    
   132   67  132 1    
   133   67  133 1    
   134   69   70 1    
   135   69  134 1    
   136   69  135 1    
   137   70   71 1    
   138   71  136 1    
   139   71  137 1    
@<TRIPOS>SUBSTRUCTURE
     1 UNK         1 GROUP             0       ****    0 ROOT    
