@<TRIPOS>MOLECULE
3R136
137   139    1
SMALL
USER_CHARGES


@<TRIPOS>ATOM
      1 CA         28.9568   19.7228   -1.5845 C.3       0 UNK        -0.1979 
      2 C          28.7430   20.9701   -0.7415 C.2       0 UNK         0.4864 
      3 O          28.8714   22.0846   -1.2500 O.2       0 UNK        -0.5359 
      4 N          28.4016   20.7997    0.5424 N.am      1 UNK        -0.4318 
      5 CA         28.2072   21.8717    1.5298 C.3       1 UNK         0.0824 
      6 C6         28.4481   21.3792    2.9817 C.3       12 UNK        -0.0944 
      7 S7         30.0572   20.5457    3.2040 S.3       12 UNK        -0.2672 
      8 C8         31.0487   21.8332    4.0394 C.3       12 UNK         0.0333 
      9 C9         31.5578   22.9717    3.1511 C.ar      12 UNK        -0.0807 
     10 C10        32.0093   24.1410    3.7697 C.ar      12 UNK        -0.0894 
     11 C11        32.5460   25.1899    3.0188 C.ar      12 UNK        -0.0804 
     12 C12        32.6148   25.0747    1.6274 C.ar      12 UNK        -0.0824 
     13 C13        32.1576   23.9173    0.9845 C.ar      12 UNK        -0.0762 
     14 C14        31.6465   22.8684    1.7560 C.ar      12 UNK        -0.0782 
     15 C15        32.2716   23.7336   -0.5292 C.3       12 UNK         0.0230 
     16 S16        32.0266   25.2490   -1.5170 S.3       12 UNK        -0.2608 
     17 C17        30.2307   25.5305   -1.3627 C.3       12 UNK        -0.0989 
     18 CA         29.9100   27.0049   -1.0042 C.3       5 UNK         0.0716 
     19 N          28.5501   27.3794   -1.3941 N.am      5 UNK        -0.4135 
     20 C          28.2067   28.5274   -1.9954 C.2       4 UNK         0.5031 
     21 O          29.0147   29.3844   -2.3552 O.2       4 UNK        -0.5229 
     22 CA         26.7059   28.7686   -2.2540 C.3       4 UNK         0.0329 
     23 CB         26.3255   28.3061   -3.6699 C.3       4 UNK        -0.2001 
     24 N          25.8356   28.1036   -1.2818 N.am      4 UNK        -0.4303 
     25 C          25.7213   28.4583    0.0059 C.2       3 UNK         0.5044 
     26 O          26.2453   29.4638    0.4833 O.2       3 UNK        -0.5152 
     27 CA         24.9040   27.5292    0.9270 C.3       3 UNK         0.0319 
     28 CB         23.5096   28.1234    1.1831 C.3       3 UNK        -0.2001 
     29 N          24.7567   26.1410    0.4608 N.am      3 UNK        -0.4354 
     30 C          25.7668   25.3015    0.1971 C.2       2 UNK         0.4964 
     31 O          26.9533   25.6365    0.2052 O.2       2 UNK        -0.5047 
     32 CA         25.4010   23.8634   -0.1946 C.3       2 UNK         0.0288 
     33 CB         25.1189   23.7750   -1.7031 C.3       2 UNK        -0.2113 
     34 N          26.5108   22.9691    0.1315 N.am      2 UNK        -0.4145 
     35 C          26.8432   22.5826    1.3693 C.2       1 UNK         0.5006 
     36 O          26.1247   22.7792    2.3521 O.2       1 UNK        -0.5103 
     37 C          30.1029   27.2888    0.4937 C.2       5 UNK         0.5055 
     38 O          31.0182   28.0227    0.8656 O.2       5 UNK        -0.5220 
     39 N          29.2076   26.7432    1.3267 N.am      6 UNK        -0.4450 
     40 CA         29.1833   26.8936    2.7802 C.3       6 UNK         0.0367 
     41 CB         28.5166   25.6476    3.3927 C.3       6 UNK        -0.1929 
     42 C          28.4999   28.2091    3.1982 C.2       6 UNK         0.5070 
     43 O          27.5760   28.1993    4.0139 O.2       6 UNK        -0.5237 
     44 N          28.9624   29.3214    2.6177 N.am      7 UNK        -0.4739 
     45 CA         28.5415   30.6809    2.9498 C.3       7 UNK         0.0276 
     46 CB         28.9471   31.6149    1.7978 C.3       7 UNK        -0.1927 
     47 C          29.1872   31.1397    4.2660 C.2       7 UNK         0.5013 
     48 O          30.2629   30.6540    4.6195 O.2       7 UNK        -0.5193 
     49 N          28.5612   32.1128    4.9416 N.am      8 UNK        -0.4253 
     50 CA         29.0263   32.6730    6.2195 C.3       8 UNK         0.0242 
     51 CB         27.9881   33.6812    6.7388 C.3       8 UNK        -0.2000 
     52 C          30.4250   33.3207    6.1673 C.2       8 UNK         0.4948 
     53 O          31.1139   33.3486    7.1877 O.2       8 UNK        -0.5275 
     54 N          30.8180   33.8176    4.9871 N.am      9 UNK        -0.4246 
     55 CA         32.1352   34.3960    4.7176 C.3       9 UNK         0.0261 
     56 CB         31.9723   35.5133    3.6720 C.3       9 UNK        -0.1959 
     57 C          33.1736   33.3620    4.2380 C.2       9 UNK         0.5033 
     58 O          34.3489   33.7184    4.1332 O.2       9 UNK        -0.5390 
     59 N          32.7510   32.1287    3.9242 N.am      10 UNK        -0.4215 
     60 CA         33.6182   31.0663    3.4126 C.3       10 UNK         0.0240 
     61 CB         32.8325   30.2265    2.3936 C.3       10 UNK        -0.1982 
     62 C          34.1317   30.1825    4.5577 C.2       10 UNK         0.4970 
     63 O          33.5066   30.1202    5.6186 O.2       10 UNK        -0.4916 
     64 N          35.2581   29.5029    4.3049 N.am      11 UNK        -0.4279 
     65 CA         35.9405   28.5815    5.2333 C.3       11 UNK         0.1003 
     66 C          36.5015   29.2504    6.5285 C.2       11 UNK         0.5709 
     67 N          36.6761   30.5663    6.5705 N.am      11 UNK        -0.7358 
     68 O          36.8230   28.5686    7.4993 O.2       11 UNK        -0.4999 
     69 C69        35.1115   27.2946    5.5205 C.3       12 UNK        -0.0954 
     70 S70        34.8621   26.2697    4.0305 S.3       12 UNK        -0.2268 
     71 C71        33.0760   26.4313    3.7212 C.3       12 UNK         0.0203 
     72 H72        28.8149   18.8103   -1.0056 H         1 UNK         0.0888 
     73 H73        28.2556   19.7093   -2.4184 H         1 UNK         0.0888 
     74 H74        29.9685   19.7141   -1.9890 H         1 UNK         0.0888 
     75 H75        28.2930   19.8622    0.9027 H         1 UNK         0.3017 
     76 H76        28.9488   22.6466    1.3295 H         1 UNK         0.0873 
     77 H77        27.6688   20.6735    3.2754 H         1 UNK         0.0745 
     78 H78        28.3795   22.2122    3.6840 H         1 UNK         0.0745 
     79 H79        30.4680   22.2397    4.8690 H         1 UNK         0.0705 
     80 H80        31.9165   21.3468    4.4866 H         1 UNK         0.0705 
     81 H81        31.9682   24.2261    4.8473 H         1 UNK         0.1334 
     82 H82        33.0400   25.8846    1.0506 H         1 UNK         0.1417 
     83 H83        31.3341   21.9607    1.2595 H         1 UNK         0.1562 
     84 H84        31.5626   22.9805   -0.8776 H         1 UNK         0.0748 
     85 H85        33.2656   23.3415   -0.7473 H         1 UNK         0.0748 
     86 H86        29.7882   24.8300   -0.6505 H         1 UNK         0.0940 
     87 H87        29.7904   25.2790   -2.3290 H         1 UNK         0.0940 
     88 H88        30.6147   27.6399   -1.5461 H         1 UNK         0.0703 
     89 H89        27.8134   26.7599   -1.0714 H         1 UNK         0.3081 
     90 H90        26.5296   29.8445   -2.1870 H         1 UNK         0.0719 
     91 H91        26.9401   28.8049   -4.4209 H         1 UNK         0.0809 
     92 H92        26.4649   27.2316   -3.7966 H         1 UNK         0.0809 
     93 H93        25.2855   28.5402   -3.8984 H         1 UNK         0.0809 
     94 H94        25.3485   27.2760   -1.5923 H         1 UNK         0.2990 
     95 H95        25.4363   27.4905    1.8801 H         1 UNK         0.0690 
     96 H96        23.5830   29.1446    1.5605 H         1 UNK         0.0788 
     97 H97        22.9613   27.5457    1.9275 H         1 UNK         0.0788 
     98 H98        22.9111   28.1550    0.2717 H         1 UNK         0.0788 
     99 H99        23.8108   25.7911    0.3991 H         1 UNK         0.2993 
    100 H100       24.5142   23.5519    0.3618 H         1 UNK         0.0949 
    101 H101       24.8671   22.7561   -1.9984 H         1 UNK         0.0767 
    102 H102       24.2775   24.4094   -1.9848 H         1 UNK         0.0767 
    103 H103       25.9801   24.0904   -2.2945 H         1 UNK         0.0767 
    104 H104       27.1971   22.8001   -0.5988 H         1 UNK         0.3013 
    105 H105       28.4252   26.2267    0.9265 H         1 UNK         0.3121 
    106 H106       30.2093   26.9373    3.1490 H         1 UNK         0.0774 
    107 H107       28.5270   25.6937    4.4822 H         1 UNK         0.0815 
    108 H108       27.4769   25.5496    3.0774 H         1 UNK         0.0815 
    109 H109       29.0418   24.7375    3.1035 H         1 UNK         0.0815 
    110 H110       29.7481   29.2233    1.9845 H         1 UNK         0.2987 
    111 H111       27.4544   30.6957    3.0577 H         1 UNK         0.0949 
    112 H112       28.6097   32.6359    1.9800 H         1 UNK         0.0806 
    113 H113       30.0290   31.6460    1.6626 H         1 UNK         0.0806 
    114 H114       28.5020   31.2928    0.8557 H         1 UNK         0.0806 
    115 H115       27.6902   32.4754    4.5800 H         1 UNK         0.3010 
    116 H116       29.0853   31.8473    6.9321 H         1 UNK         0.0829 
    117 H117       27.8583   34.5183    6.0516 H         1 UNK         0.0813 
    118 H118       27.0154   33.2114    6.8858 H         1 UNK         0.0813 
    119 H119       28.2931   34.0949    7.7013 H         1 UNK         0.0813 
    120 H120       30.1778   33.7613    4.2086 H         1 UNK         0.3038 
    121 H121       32.5271   34.8459    5.6325 H         1 UNK         0.0769 
    122 H122       31.5988   35.1278    2.7225 H         1 UNK         0.0811 
    123 H123       32.9258   36.0041    3.4713 H         1 UNK         0.0811 
    124 H124       31.2822   36.2831    4.0179 H         1 UNK         0.0811 
    125 H125       31.8082   31.8427    4.1713 H         1 UNK         0.3204 
    126 H126       34.4759   31.5065    2.8991 H         1 UNK         0.0748 
    127 H127       33.4668   29.4669    1.9351 H         1 UNK         0.0771 
    128 H128       31.9939   29.7074    2.8581 H         1 UNK         0.0771 
    129 H129       32.4385   30.8434    1.5861 H         1 UNK         0.0771 
    130 H130       35.7062   29.6197    3.4077 H         1 UNK         0.2980 
    131 H131       36.8395   28.2641    4.7040 H         1 UNK         0.0545 
    132 H132       37.0511   30.9867    7.4061 H         1 UNK         0.3459 
    133 H133       36.4275   31.1422    5.7825 H         1 UNK         0.3459 
    134 H134       34.1553   27.5408    5.9831 H         1 UNK         0.0616 
    135 H135       35.6301   26.6568    6.2380 H         1 UNK         0.0616 
    136 H136       32.5405   26.5800    4.6598 H         1 UNK         0.0634 
    137 H137       32.8907   27.3185    3.1150 H         1 UNK         0.0634 
@<TRIPOS>BOND
     1    1    2 1    
     2    1   72 1    
     3    1   73 1    
     4    1   74 1    
     5    2    3 2    
     6    2    4 am   BACKBONE|DICT|INTERRES
     7    4    5 1    
     8    4   75 1    
     9    5    6 1    
    10    5   35 1    
    11    5   76 1    
    12    6    7 1    
    13    6   77 1    
    14    6   78 1    
    15    7    8 1    
    16    8    9 1    
    17    8   79 1    
    18    8   80 1    
    19    9   10 ar   
    20    9   14 ar   
    21   10   11 ar   
    22   10   81 1    
    23   11   12 ar   
    24   11   71 1    
    25   12   13 ar   
    26   12   82 1    
    27   13   14 ar   
    28   13   15 1    
    29   14   83 1    
    30   15   16 1    
    31   15   84 1    
    32   15   85 1    
    33   16   17 1    
    34   17   18 1    
    35   17   86 1    
    36   17   87 1    
    37   18   19 1    
    38   18   37 1    
    39   18   88 1    
    40   19   20 am   BACKBONE|DICT|INTERRES
    41   19   89 1    
    42   20   21 2    
    43   20   22 1    
    44   22   23 1    
    45   22   24 1    
    46   22   90 1    
    47   23   91 1    
    48   23   92 1    
    49   23   93 1    
    50   24   25 am   BACKBONE|DICT|INTERRES
    51   24   94 1    
    52   25   26 2    
    53   25   27 1    
    54   27   28 1    
    55   27   29 1    
    56   27   95 1    
    57   28   96 1    
    58   28   97 1    
    59   28   98 1    
    60   29   30 am   BACKBONE|DICT|INTERRES
    61   29   99 1    
    62   30   31 2    
    63   30   32 1    
    64   32   33 1    
    65   32   34 1    
    66   32  100 1    
    67   33  101 1    
    68   33  102 1    
    69   33  103 1    
    70   34   35 am   BACKBONE|DICT|INTERRES
    71   34  104 1    
    72   35   36 2    
    73   37   38 2    
    74   37   39 am   BACKBONE|DICT|INTERRES
    75   39   40 1    
    76   39  105 1    
    77   40   41 1    
    78   40   42 1    
    79   40  106 1    
    80   41  107 1    
    81   41  108 1    
    82   41  109 1    
    83   42   43 2    
    84   42   44 am   BACKBONE|DICT|INTERRES
    85   44   45 1    
    86   44  110 1    
    87   45   46 1    
    88   45   47 1    
    89   45  111 1    
    90   46  112 1    
    91   46  113 1    
    92   46  114 1    
    93   47   48 2    
    94   47   49 am   BACKBONE|DICT|INTERRES
    95   49   50 1    
    96   49  115 1    
    97   50   51 1    
    98   50   52 1    
    99   50  116 1    
   100   51  117 1    
   101   51  118 1    
   102   51  119 1    
   103   52   53 2    
   104   52   54 am   BACKBONE|DICT|INTERRES
   105   54   55 1    
   106   54  120 1    
   107   55   56 1    
   108   55   57 1    
   109   55  121 1    
   110   56  122 1    
   111   56  123 1    
   112   56  124 1    
   113   57   58 2    
   114   57   59 am   BACKBONE|DICT|INTERRES
   115   59   60 1    
   116   59  125 1    
   117   60   61 1    
   118   60   62 1    
   119   60  126 1    
   120   61  127 1    
   121   61  128 1    
   122   61  129 1    
   123   62   63 2    
   124   62   64 am   BACKBONE|DICT|INTERRES
   125   64   65 1    
   126   64  130 1    
   127   65   66 1    
   128   65   69 1    
   129   65  131 1    
   130   66   67 am   BACKBONE|DICT|INTERRES
   131   66   68 2    
   132   67  132 1    
   133   67  133 1    
   134   69   70 1    
   135   69  134 1    
   136   69  135 1    
   137   70   71 1    
   138   71  136 1    
   139   71  137 1    
@<TRIPOS>SUBSTRUCTURE
     1 UNK         1 GROUP             0       ****    0 ROOT    
