@<TRIPOS>MOLECULE
3R136
137   139    1
SMALL
USER_CHARGES


@<TRIPOS>ATOM
      1 CA         28.7913   23.5111   -3.3114 C.3       0 UNK        -0.1979 
      2 C          28.3522   23.7599   -1.8777 C.2       0 UNK         0.4864 
      3 O          27.7808   24.8114   -1.5867 O.2       0 UNK        -0.5359 
      4 N          28.6061   22.8041   -0.9714 N.am      1 UNK        -0.4318 
      5 CA         28.2640   22.8919    0.4567 C.3       1 UNK         0.0824 
      6 C6         28.8602   21.7046    1.2577 C.3       12 UNK        -0.0944 
      7 S7         29.2585   22.1330    2.9898 S.3       12 UNK        -0.2672 
      8 C8         31.0439   21.7534    3.1002 C.3       12 UNK         0.0333 
      9 C9         31.9261   22.9810    2.8941 C.ar      12 UNK        -0.0807 
     10 C10        32.8230   23.3779    3.8903 C.ar      12 UNK        -0.0894 
     11 C11        33.6507   24.4923    3.7167 C.ar      12 UNK        -0.0804 
     12 C12        33.5506   25.2285    2.5256 C.ar      12 UNK        -0.0824 
     13 C13        32.6500   24.8561    1.5200 C.ar      12 UNK        -0.0762 
     14 C14        31.8650   23.7103    1.7052 C.ar      12 UNK        -0.0782 
     15 C15        32.5571   25.7007    0.2454 C.3       12 UNK         0.0230 
     16 S16        30.9197   25.6247   -0.5668 S.3       12 UNK        -0.2608 
     17 C17        30.5948   27.3444   -1.0864 C.3       12 UNK        -0.0989 
     18 CA         29.7165   28.1573   -0.0994 C.3       5 UNK         0.0716 
     19 N          28.3794   27.5795    0.1285 N.am      5 UNK        -0.4135 
     20 C          27.4333   28.1744    0.8783 C.2       4 UNK         0.5031 
     21 O          27.5612   29.3064    1.3540 O.2       4 UNK        -0.5229 
     22 CA         26.1848   27.3457    1.2312 C.3       4 UNK         0.0329 
     23 CB         25.0592   28.1838    1.8750 C.3       4 UNK        -0.2001 
     24 N          25.6710   26.5422    0.1222 N.am      4 UNK        -0.4303 
     25 C          25.1273   26.9727   -1.0272 C.2       3 UNK         0.5044 
     26 O          25.0302   28.1607   -1.3376 O.2       3 UNK        -0.5152 
     27 CA         24.5799   25.9012   -1.9934 C.3       3 UNK         0.0319 
     28 CB         25.1888   26.0518   -3.3992 C.3       3 UNK        -0.2001 
     29 N          24.8233   24.5390   -1.5075 N.am      3 UNK        -0.4354 
     30 C          23.9824   23.8303   -0.7388 C.2       2 UNK         0.4964 
     31 O          22.8539   24.2140   -0.4310 O.2       2 UNK        -0.5047 
     32 CA         24.4806   22.4733   -0.2008 C.3       2 UNK         0.0288 
     33 CB         23.9169   21.3214   -1.0489 C.3       2 UNK        -0.2113 
     34 N          25.9415   22.3550   -0.1448 N.am      2 UNK        -0.4145 
     35 C          26.7421   23.0463    0.6821 C.2       1 UNK         0.5006 
     36 O          26.3240   23.8389    1.5270 O.2       1 UNK        -0.5103 
     37 C          30.4754   28.4252    1.2171 C.2       5 UNK         0.5055 
     38 O          31.1926   29.4201    1.3092 O.2       5 UNK        -0.5220 
     39 N          30.2728   27.5512    2.2150 N.am      6 UNK        -0.4450 
     40 CA         30.8440   27.6525    3.5548 C.3       6 UNK         0.0367 
     41 CB         30.4497   26.4170    4.3791 C.3       6 UNK        -0.1929 
     42 C          30.4335   28.9384    4.2854 C.2       6 UNK         0.5070 
     43 O          31.2843   29.5804    4.8987 O.2       6 UNK        -0.5237 
     44 N          29.1504   29.3093    4.1773 N.am      7 UNK        -0.4739 
     45 CA         28.6037   30.5412    4.7470 C.3       7 UNK         0.0276 
     46 CB         27.0683   30.4781    4.7468 C.3       7 UNK        -0.1927 
     47 C          29.0963   31.7882    3.9988 C.2       7 UNK         0.5013 
     48 O          29.4245   32.7843    4.6429 O.2       7 UNK        -0.5193 
     49 N          29.1634   31.7008    2.6620 N.am      8 UNK        -0.4253 
     50 CA         29.6539   32.7668    1.7847 C.3       8 UNK         0.0242 
     51 CB         29.3609   32.4050    0.3197 C.3       8 UNK        -0.2000 
     52 C          31.1491   33.0698    1.9867 C.2       8 UNK         0.4948 
     53 O          31.5254   34.2404    2.0551 O.2       8 UNK        -0.5275 
     54 N          31.9690   32.0154    2.0900 N.am      9 UNK        -0.4246 
     55 CA         33.4161   32.1026    2.3004 C.3       9 UNK         0.0261 
     56 CB         34.0652   30.7940    1.8174 C.3       9 UNK        -0.1959 
     57 C          33.8194   32.3794    3.7600 C.2       9 UNK         0.5033 
     58 O          34.9753   32.7383    3.9897 O.2       9 UNK        -0.5390 
     59 N          32.8939   32.1718    4.7109 N.am      10 UNK        -0.4215 
     60 CA         33.1071   32.1422    6.1661 C.3       10 UNK         0.0240 
     61 CB         33.5093   33.5305    6.7084 C.3       10 UNK        -0.1982 
     62 C          34.0844   31.0166    6.5652 C.2       10 UNK         0.4970 
     63 O          35.0308   31.2407    7.3224 O.2       10 UNK        -0.4916 
     64 N          33.8414   29.8312    5.9976 N.am      11 UNK        -0.4279 
     65 CA         34.6322   28.6089    6.1573 C.3       11 UNK         0.1003 
     66 C          34.4722   27.9841    7.5701 C.2       11 UNK         0.5709 
     67 N          35.5284   27.3940    8.1127 N.am      11 UNK        -0.7358 
     68 O          33.3947   28.0012    8.1629 O.2       11 UNK        -0.4999 
     69 C69        34.2671   27.6123    5.0276 C.3       12 UNK        -0.0954 
     70 S70        35.5697   26.3912    4.6736 S.3       12 UNK        -0.2268 
     71 C71        34.6409   24.8266    4.8399 C.3       12 UNK         0.0203 
     72 H72        29.5146   24.2683   -3.6128 H         1 UNK         0.0888 
     73 H73        29.2529   22.5316   -3.4332 H         1 UNK         0.0888 
     74 H74        27.9345   23.5711   -3.9818 H         1 UNK         0.0888 
     75 H75        29.0812   21.9620   -1.2641 H         1 UNK         0.3017 
     76 H76        28.7265   23.8138    0.8165 H         1 UNK         0.0873 
     77 H77        28.1911   20.8417    1.2523 H         1 UNK         0.0745 
     78 H78        29.7745   21.3571    0.7754 H         1 UNK         0.0745 
     79 H79        31.3211   20.9778    2.3856 H         1 UNK         0.0705 
     80 H80        31.2269   21.3239    4.0863 H         1 UNK         0.0705 
     81 H81        32.8882   22.8075    4.8071 H         1 UNK         0.1334 
     82 H82        34.1743   26.0961    2.3669 H         1 UNK         0.1417 
     83 H83        31.1874   23.3855    0.9303 H         1 UNK         0.1562 
     84 H84        33.3157   25.3618   -0.4610 H         1 UNK         0.0748 
     85 H85        32.7955   26.7387    0.4811 H         1 UNK         0.0748 
     86 H86        31.5411   27.8556   -1.2753 H         1 UNK         0.0940 
     87 H87        30.0938   27.3014   -2.0548 H         1 UNK         0.0940 
     88 H88        29.5474   29.1338   -0.5575 H         1 UNK         0.0703 
     89 H89        28.2052   26.6622   -0.2671 H         1 UNK         0.3081 
     90 H90        26.5151   26.6269    1.9823 H         1 UNK         0.0719 
     91 H91        24.1889   27.5697    2.1063 H         1 UNK         0.0809 
     92 H92        25.3925   28.6317    2.8109 H         1 UNK         0.0809 
     93 H93        24.7346   28.9961    1.2238 H         1 UNK         0.0809 
     94 H94        25.7253   25.5414    0.2658 H         1 UNK         0.2990 
     95 H95        23.5043   26.0688   -2.0783 H         1 UNK         0.0690 
     96 H96        26.2755   25.9683   -3.3845 H         1 UNK         0.0788 
     97 H97        24.9460   27.0255   -3.8268 H         1 UNK         0.0788 
     98 H98        24.8026   25.2952   -4.0822 H         1 UNK         0.0788 
     99 H99        25.7597   24.1874   -1.6670 H         1 UNK         0.2993 
    100 H100       24.0972   22.3702    0.8169 H         1 UNK         0.0949 
    101 H101       24.2787   21.3617   -2.0772 H         1 UNK         0.0767 
    102 H102       24.1901   20.3513   -0.6330 H         1 UNK         0.0767 
    103 H103       22.8271   21.3602   -1.0852 H         1 UNK         0.0767 
    104 H104       26.3717   21.7387   -0.8193 H         1 UNK         0.3013 
    105 H105       29.6971   26.7446    2.0258 H         1 UNK         0.3121 
    106 H106       31.9265   27.6635    3.4335 H         1 UNK         0.0774 
    107 H107       30.9106   26.4435    5.3673 H         1 UNK         0.0815 
    108 H108       29.3709   26.3517    4.5243 H         1 UNK         0.0815 
    109 H109       30.7751   25.4963    3.8970 H         1 UNK         0.0815 
    110 H110       28.5293   28.7537    3.6070 H         1 UNK         0.2987 
    111 H111       28.9427   30.6171    5.7829 H         1 UNK         0.0949 
    112 H112       26.6653   30.4432    3.7342 H         1 UNK         0.0806 
    113 H113       26.7043   29.6037    5.2862 H         1 UNK         0.0806 
    114 H114       26.6447   31.3580    5.2329 H         1 UNK         0.0806 
    115 H115       28.8456   30.8457    2.2186 H         1 UNK         0.3010 
    116 H116       29.0972   33.6747    2.0269 H         1 UNK         0.0829 
    117 H117       29.6613   33.2135   -0.3481 H         1 UNK         0.0813 
    118 H118       29.8988   31.5095    0.0083 H         1 UNK         0.0813 
    119 H119       28.2970   32.2287    0.1588 H         1 UNK         0.0813 
    120 H120       31.5876   31.0798    1.9511 H         1 UNK         0.3038 
    121 H121       33.8075   32.9210    1.6923 H         1 UNK         0.0769 
    122 H122       35.1506   30.8315    1.9195 H         1 UNK         0.0811 
    123 H123       33.8446   30.6059    0.7666 H         1 UNK         0.0811 
    124 H124       33.7125   29.9359    2.3908 H         1 UNK         0.0811 
    125 H125       31.9844   31.8508    4.4050 H         1 UNK         0.3204 
    126 H126       32.1441   31.8827    6.6090 H         1 UNK         0.0748 
    127 H127       33.5451   33.5257    7.7984 H         1 UNK         0.0771 
    128 H128       34.4932   33.8391    6.3542 H         1 UNK         0.0771 
    129 H129       32.7906   34.2940    6.4107 H         1 UNK         0.0771 
    130 H130       32.9727   29.7307    5.4757 H         1 UNK         0.2980 
    131 H131       35.6769   28.9010    6.0320 H         1 UNK         0.0545 
    132 H132       35.4416   26.9729    9.0241 H         1 UNK         0.3459 
    133 H133       36.4077   27.3519    7.6214 H         1 UNK         0.3459 
    134 H134       33.3243   27.1094    5.2468 H         1 UNK         0.0616 
    135 H135       34.1111   28.1535    4.0935 H         1 UNK         0.0616 
    136 H136       35.3686   24.0163    4.8998 H         1 UNK         0.0634 
    137 H137       34.1158   24.8364    5.7965 H         1 UNK         0.0634 
@<TRIPOS>BOND
     1    1    2 1    
     2    1   72 1    
     3    1   73 1    
     4    1   74 1    
     5    2    3 2    
     6    2    4 am   BACKBONE|DICT|INTERRES
     7    4    5 1    
     8    4   75 1    
     9    5    6 1    
    10    5   35 1    
    11    5   76 1    
    12    6    7 1    
    13    6   77 1    
    14    6   78 1    
    15    7    8 1    
    16    8    9 1    
    17    8   79 1    
    18    8   80 1    
    19    9   10 ar   
    20    9   14 ar   
    21   10   11 ar   
    22   10   81 1    
    23   11   12 ar   
    24   11   71 1    
    25   12   13 ar   
    26   12   82 1    
    27   13   14 ar   
    28   13   15 1    
    29   14   83 1    
    30   15   16 1    
    31   15   84 1    
    32   15   85 1    
    33   16   17 1    
    34   17   18 1    
    35   17   86 1    
    36   17   87 1    
    37   18   19 1    
    38   18   37 1    
    39   18   88 1    
    40   19   20 am   BACKBONE|DICT|INTERRES
    41   19   89 1    
    42   20   21 2    
    43   20   22 1    
    44   22   23 1    
    45   22   24 1    
    46   22   90 1    
    47   23   91 1    
    48   23   92 1    
    49   23   93 1    
    50   24   25 am   BACKBONE|DICT|INTERRES
    51   24   94 1    
    52   25   26 2    
    53   25   27 1    
    54   27   28 1    
    55   27   29 1    
    56   27   95 1    
    57   28   96 1    
    58   28   97 1    
    59   28   98 1    
    60   29   30 am   BACKBONE|DICT|INTERRES
    61   29   99 1    
    62   30   31 2    
    63   30   32 1    
    64   32   33 1    
    65   32   34 1    
    66   32  100 1    
    67   33  101 1    
    68   33  102 1    
    69   33  103 1    
    70   34   35 am   BACKBONE|DICT|INTERRES
    71   34  104 1    
    72   35   36 2    
    73   37   38 2    
    74   37   39 am   BACKBONE|DICT|INTERRES
    75   39   40 1    
    76   39  105 1    
    77   40   41 1    
    78   40   42 1    
    79   40  106 1    
    80   41  107 1    
    81   41  108 1    
    82   41  109 1    
    83   42   43 2    
    84   42   44 am   BACKBONE|DICT|INTERRES
    85   44   45 1    
    86   44  110 1    
    87   45   46 1    
    88   45   47 1    
    89   45  111 1    
    90   46  112 1    
    91   46  113 1    
    92   46  114 1    
    93   47   48 2    
    94   47   49 am   BACKBONE|DICT|INTERRES
    95   49   50 1    
    96   49  115 1    
    97   50   51 1    
    98   50   52 1    
    99   50  116 1    
   100   51  117 1    
   101   51  118 1    
   102   51  119 1    
   103   52   53 2    
   104   52   54 am   BACKBONE|DICT|INTERRES
   105   54   55 1    
   106   54  120 1    
   107   55   56 1    
   108   55   57 1    
   109   55  121 1    
   110   56  122 1    
   111   56  123 1    
   112   56  124 1    
   113   57   58 2    
   114   57   59 am   BACKBONE|DICT|INTERRES
   115   59   60 1    
   116   59  125 1    
   117   60   61 1    
   118   60   62 1    
   119   60  126 1    
   120   61  127 1    
   121   61  128 1    
   122   61  129 1    
   123   62   63 2    
   124   62   64 am   BACKBONE|DICT|INTERRES
   125   64   65 1    
   126   64  130 1    
   127   65   66 1    
   128   65   69 1    
   129   65  131 1    
   130   66   67 am   BACKBONE|DICT|INTERRES
   131   66   68 2    
   132   67  132 1    
   133   67  133 1    
   134   69   70 1    
   135   69  134 1    
   136   69  135 1    
   137   70   71 1    
   138   71  136 1    
   139   71  137 1    
@<TRIPOS>SUBSTRUCTURE
     1 UNK         1 GROUP             0       ****    0 ROOT    
