@<TRIPOS>MOLECULE
3R136
137   139    1
SMALL
USER_CHARGES


@<TRIPOS>ATOM
      1 CA         25.9871   27.7574    3.6105 C.3       0 UNK        -0.1979 
      2 C          26.6442   26.3862    3.6454 C.2       0 UNK         0.4864 
      3 O          26.4498   25.6413    4.6073 O.2       0 UNK        -0.5359 
      4 N          27.4094   26.0375    2.6029 N.am      1 UNK        -0.4318 
      5 CA         28.0849   24.7447    2.4614 C.3       1 UNK         0.0824 
      6 C6         29.4272   24.8670    1.6869 C.3       12 UNK        -0.0944 
      7 S7         30.6966   23.7322    2.3410 S.3       12 UNK        -0.2672 
      8 C8         31.8685   23.6306    0.9492 C.3       12 UNK         0.0333 
      9 C9         32.4103   24.9982    0.5555 C.ar      12 UNK        -0.0807 
     10 C10        33.3579   25.6442    1.3552 C.ar      12 UNK        -0.0894 
     11 C11        33.8381   26.9096    1.0025 C.ar      12 UNK        -0.0804 
     12 C12        33.3515   27.5345   -0.1511 C.ar      12 UNK        -0.0824 
     13 C13        32.4144   26.8919   -0.9663 C.ar      12 UNK        -0.0762 
     14 C14        31.9630   25.6164   -0.6149 C.ar      12 UNK        -0.0782 
     15 C15        31.9102   27.5604   -2.2398 C.3       12 UNK         0.0230 
     16 S16        30.3216   28.4190   -1.9896 S.3       12 UNK        -0.2608 
     17 C17        29.1869   27.0034   -1.7919 C.3       12 UNK        -0.0989 
     18 CA         27.6850   27.3594   -1.9018 C.3       5 UNK         0.0716 
     19 N          26.8644   26.1565   -1.9024 N.am      5 UNK        -0.4135 
     20 C          26.5717   25.3898   -2.9564 C.2       4 UNK         0.5031 
     21 O          26.9768   25.6139   -4.0978 O.2       4 UNK        -0.5229 
     22 CA         25.6854   24.1577   -2.6997 C.3       4 UNK         0.0329 
     23 CB         26.5297   22.8732   -2.7438 C.3       4 UNK        -0.2001 
     24 N          24.9911   24.2255   -1.4099 N.am      4 UNK        -0.4303 
     25 C          23.8007   24.8117   -1.2120 C.2       3 UNK         0.5044 
     26 O          23.1546   25.3392   -2.1186 O.2       3 UNK        -0.5152 
     27 CA         23.2393   24.8601    0.2281 C.3       3 UNK         0.0319 
     28 CB         21.7348   24.5187    0.2772 C.3       3 UNK        -0.2001 
     29 N          23.9943   24.0706    1.2115 N.am      3 UNK        -0.4354 
     30 C          24.1597   22.7384    1.2548 C.2       2 UNK         0.4964 
     31 O          23.5943   21.9522    0.4938 O.2       2 UNK        -0.5047 
     32 CA         25.1631   22.2044    2.3027 C.3       2 UNK         0.0288 
     33 CB         25.7832   20.8541    1.8832 C.3       2 UNK        -0.2113 
     34 N          26.2278   23.1591    2.6571 N.am      2 UNK        -0.4145 
     35 C          27.0964   23.7525    1.8217 C.2       1 UNK         0.5006 
     36 O          27.0708   23.6114    0.5970 O.2       1 UNK        -0.5103 
     37 C          27.2131   28.1966   -0.7058 C.2       5 UNK         0.5055 
     38 O          26.8207   27.6203    0.3134 O.2       5 UNK        -0.5220 
     39 N          27.3013   29.5268   -0.8293 N.am      6 UNK        -0.4450 
     40 CA         27.0276   30.4799    0.2513 C.3       6 UNK         0.0367 
     41 CB         26.9101   31.8943   -0.3393 C.3       6 UNK        -0.1929 
     42 C          28.0850   30.4513    1.3724 C.2       6 UNK         0.5070 
     43 O          27.7714   30.8484    2.4951 O.2       6 UNK        -0.5237 
     44 N          29.2954   29.9674    1.0505 N.am      7 UNK        -0.4739 
     45 CA         30.4609   29.8171    1.9284 C.3       7 UNK         0.0276 
     46 CB         30.1514   28.8098    3.0602 C.3       7 UNK        -0.1927 
     47 C          31.0003   31.1689    2.4447 C.2       7 UNK         0.5013 
     48 O          30.7497   32.2135    1.8375 O.2       7 UNK        -0.5193 
     49 N          31.7600   31.1171    3.5409 N.am      8 UNK        -0.4253 
     50 CA         32.3745   32.2351    4.2457 C.3       8 UNK         0.0242 
     51 CB         33.6272   32.7172    3.4878 C.3       8 UNK        -0.2000 
     52 C          32.7386   31.7414    5.6504 C.2       8 UNK         0.4948 
     53 O          32.7563   30.5300    5.8845 O.2       8 UNK        -0.5275 
     54 N          33.0691   32.6731    6.5542 N.am      9 UNK        -0.4246 
     55 CA         33.4584   32.3866    7.9430 C.3       9 UNK         0.0261 
     56 CB         33.6248   33.7116    8.7053 C.3       9 UNK        -0.1959 
     57 C          34.7265   31.5201    8.0878 C.2       9 UNK         0.5033 
     58 O          34.8869   30.8528    9.1105 O.2       9 UNK        -0.5390 
     59 N          35.5955   31.5409    7.0684 N.am      10 UNK        -0.4215 
     60 CA         36.8073   30.7260    6.9810 C.3       10 UNK         0.0240 
     61 CB         37.7835   31.3988    6.0008 C.3       10 UNK        -0.1982 
     62 C          36.5480   29.2669    6.5568 C.2       10 UNK         0.4970 
     63 O          37.4411   28.4380    6.7395 O.2       10 UNK        -0.4916 
     64 N          35.3767   28.9724    5.9745 N.am      11 UNK        -0.4279 
     65 CA         35.0153   27.6347    5.4803 C.3       11 UNK         0.1003 
     66 C          34.7043   26.6405    6.6315 C.2       11 UNK         0.5709 
     67 N          34.9708   25.3570    6.4291 N.am      11 UNK        -0.7358 
     68 O          34.1932   27.0105    7.6871 O.2       11 UNK        -0.4999 
     69 C69        33.8470   27.6855    4.4611 C.3       12 UNK        -0.0954 
     70 S70        34.2083   28.7656    3.0349 S.3       12 UNK        -0.2268 
     71 C71        34.9109   27.5900    1.8403 C.3       12 UNK         0.0203 
     72 H72        26.3595   28.3661    2.7883 H         1 UNK         0.0888 
     73 H73        24.9082   27.6557    3.4985 H         1 UNK         0.0888 
     74 H74        26.1868   28.2934    4.5378 H         1 UNK         0.0888 
     75 H75        27.4287   26.6480    1.7883 H         1 UNK         0.3017 
     76 H76        28.3163   24.3779    3.4642 H         1 UNK         0.0873 
     77 H77        29.3094   24.7071    0.6145 H         1 UNK         0.0745 
     78 H78        29.8367   25.8720    1.7860 H         1 UNK         0.0745 
     79 H79        32.6971   22.9795    1.2309 H         1 UNK         0.0705 
     80 H80        31.3757   23.1488    0.1032 H         1 UNK         0.0705 
     81 H81        33.7210   25.1575    2.2498 H         1 UNK         0.1334 
     82 H82        33.7165   28.5159   -0.4221 H         1 UNK         0.1417 
     83 H83        31.2508   25.1063   -1.2481 H         1 UNK         0.1562 
     84 H84        31.8085   26.8232   -3.0377 H         1 UNK         0.0748 
     85 H85        32.6441   28.2857   -2.5945 H         1 UNK         0.0748 
     86 H86        29.3857   26.5326   -0.8294 H         1 UNK         0.0940 
     87 H87        29.4398   26.2645   -2.5541 H         1 UNK         0.0940 
     88 H88        27.4985   27.9166   -2.8225 H         1 UNK         0.0703 
     89 H89        26.4714   25.9281   -0.9984 H         1 UNK         0.3081 
     90 H90        24.9496   24.1064   -3.5051 H         1 UNK         0.0719 
     91 H91        27.3135   22.8770   -1.9854 H         1 UNK         0.0809 
     92 H92        25.9136   21.9881   -2.5840 H         1 UNK         0.0809 
     93 H93        27.0161   22.7590   -3.7135 H         1 UNK         0.0809 
     94 H94        25.4902   23.8374   -0.6147 H         1 UNK         0.2990 
     95 H95        23.3460   25.8985    0.5455 H         1 UNK         0.0690 
     96 H96        21.3471   24.5775    1.2942 H         1 UNK         0.0788 
     97 H97        21.5321   23.5171   -0.1027 H         1 UNK         0.0788 
     98 H98        21.1548   25.2160   -0.3286 H         1 UNK         0.0788 
     99 H99        24.5097   24.6138    1.8895 H         1 UNK         0.2993 
    100 H100       24.5838   22.0362    3.2119 H         1 UNK         0.0949 
    101 H101       26.4731   20.4820    2.6407 H         1 UNK         0.0767 
    102 H102       25.0145   20.0922    1.7471 H         1 UNK         0.0767 
    103 H103       26.3303   20.9367    0.9431 H         1 UNK         0.0767 
    104 H104       26.2794   23.4119    3.6366 H         1 UNK         0.3013 
    105 H105       27.6490   29.9121   -1.6964 H         1 UNK         0.3121 
    106 H106       26.0679   30.2157    0.7014 H         1 UNK         0.0774 
    107 H107       26.6742   32.6219    0.4387 H         1 UNK         0.0815 
    108 H108       27.8405   32.2137   -0.8107 H         1 UNK         0.0815 
    109 H109       26.1163   31.9505   -1.0843 H         1 UNK         0.0815 
    110 H110       29.4475   29.7007    0.0873 H         1 UNK         0.2987 
    111 H111       31.2500   29.3881    1.3081 H         1 UNK         0.0949 
    112 H112       29.5379   29.2543    3.8450 H         1 UNK         0.0806 
    113 H113       29.6148   27.9431    2.6804 H         1 UNK         0.0806 
    114 H114       31.0646   28.4372    3.5225 H         1 UNK         0.0806 
    115 H115       31.9174   30.2279    4.0017 H         1 UNK         0.3010 
    116 H116       31.6492   33.0467    4.3334 H         1 UNK         0.0829 
    117 H117       33.3787   33.0536    2.4812 H         1 UNK         0.0813 
    118 H118       34.1005   33.5576    3.9964 H         1 UNK         0.0813 
    119 H119       34.3722   31.9253    3.3980 H         1 UNK         0.0813 
    120 H120       33.0362   33.6467    6.2855 H         1 UNK         0.3038 
    121 H121       32.6389   31.8298    8.4027 H         1 UNK         0.0769 
    122 H122       32.7017   34.2916    8.7019 H         1 UNK         0.0811 
    123 H123       34.4135   34.3296    8.2745 H         1 UNK         0.0811 
    124 H124       33.8864   33.5314    9.7491 H         1 UNK         0.0811 
    125 H125       35.3845   32.1307    6.2772 H         1 UNK         0.3204 
    126 H126       37.2796   30.6987    7.9655 H         1 UNK         0.0748 
    127 H127       38.7195   30.8418    5.9365 H         1 UNK         0.0771 
    128 H128       37.3693   31.4562    4.9932 H         1 UNK         0.0771 
    129 H129       38.0337   32.4106    6.3206 H         1 UNK         0.0771 
    130 H130       34.6475   29.6731    5.9142 H         1 UNK         0.2980 
    131 H131       35.8872   27.2465    4.9496 H         1 UNK         0.0545 
    132 H132       34.7633   24.6941    7.1595 H         1 UNK         0.3459 
    133 H133       35.3831   25.0378    5.5666 H         1 UNK         0.3459 
    134 H134       33.6058   26.6863    4.0968 H         1 UNK         0.0616 
    135 H135       32.9419   28.0516    4.9468 H         1 UNK         0.0616 
    136 H136       35.5215   26.8515    2.3620 H         1 UNK         0.0634 
    137 H137       35.5924   28.1326    1.1836 H         1 UNK         0.0634 
@<TRIPOS>BOND
     1    1    2 1    
     2    1   72 1    
     3    1   73 1    
     4    1   74 1    
     5    2    3 2    
     6    2    4 am   BACKBONE|DICT|INTERRES
     7    4    5 1    
     8    4   75 1    
     9    5    6 1    
    10    5   35 1    
    11    5   76 1    
    12    6    7 1    
    13    6   77 1    
    14    6   78 1    
    15    7    8 1    
    16    8    9 1    
    17    8   79 1    
    18    8   80 1    
    19    9   10 ar   
    20    9   14 ar   
    21   10   11 ar   
    22   10   81 1    
    23   11   12 ar   
    24   11   71 1    
    25   12   13 ar   
    26   12   82 1    
    27   13   14 ar   
    28   13   15 1    
    29   14   83 1    
    30   15   16 1    
    31   15   84 1    
    32   15   85 1    
    33   16   17 1    
    34   17   18 1    
    35   17   86 1    
    36   17   87 1    
    37   18   19 1    
    38   18   37 1    
    39   18   88 1    
    40   19   20 am   BACKBONE|DICT|INTERRES
    41   19   89 1    
    42   20   21 2    
    43   20   22 1    
    44   22   23 1    
    45   22   24 1    
    46   22   90 1    
    47   23   91 1    
    48   23   92 1    
    49   23   93 1    
    50   24   25 am   BACKBONE|DICT|INTERRES
    51   24   94 1    
    52   25   26 2    
    53   25   27 1    
    54   27   28 1    
    55   27   29 1    
    56   27   95 1    
    57   28   96 1    
    58   28   97 1    
    59   28   98 1    
    60   29   30 am   BACKBONE|DICT|INTERRES
    61   29   99 1    
    62   30   31 2    
    63   30   32 1    
    64   32   33 1    
    65   32   34 1    
    66   32  100 1    
    67   33  101 1    
    68   33  102 1    
    69   33  103 1    
    70   34   35 am   BACKBONE|DICT|INTERRES
    71   34  104 1    
    72   35   36 2    
    73   37   38 2    
    74   37   39 am   BACKBONE|DICT|INTERRES
    75   39   40 1    
    76   39  105 1    
    77   40   41 1    
    78   40   42 1    
    79   40  106 1    
    80   41  107 1    
    81   41  108 1    
    82   41  109 1    
    83   42   43 2    
    84   42   44 am   BACKBONE|DICT|INTERRES
    85   44   45 1    
    86   44  110 1    
    87   45   46 1    
    88   45   47 1    
    89   45  111 1    
    90   46  112 1    
    91   46  113 1    
    92   46  114 1    
    93   47   48 2    
    94   47   49 am   BACKBONE|DICT|INTERRES
    95   49   50 1    
    96   49  115 1    
    97   50   51 1    
    98   50   52 1    
    99   50  116 1    
   100   51  117 1    
   101   51  118 1    
   102   51  119 1    
   103   52   53 2    
   104   52   54 am   BACKBONE|DICT|INTERRES
   105   54   55 1    
   106   54  120 1    
   107   55   56 1    
   108   55   57 1    
   109   55  121 1    
   110   56  122 1    
   111   56  123 1    
   112   56  124 1    
   113   57   58 2    
   114   57   59 am   BACKBONE|DICT|INTERRES
   115   59   60 1    
   116   59  125 1    
   117   60   61 1    
   118   60   62 1    
   119   60  126 1    
   120   61  127 1    
   121   61  128 1    
   122   61  129 1    
   123   62   63 2    
   124   62   64 am   BACKBONE|DICT|INTERRES
   125   64   65 1    
   126   64  130 1    
   127   65   66 1    
   128   65   69 1    
   129   65  131 1    
   130   66   67 am   BACKBONE|DICT|INTERRES
   131   66   68 2    
   132   67  132 1    
   133   67  133 1    
   134   69   70 1    
   135   69  134 1    
   136   69  135 1    
   137   70   71 1    
   138   71  136 1    
   139   71  137 1    
@<TRIPOS>SUBSTRUCTURE
     1 UNK         1 GROUP             0       ****    0 ROOT    
