@<TRIPOS>MOLECULE
3R136
137   139    1
SMALL
USER_CHARGES


@<TRIPOS>ATOM
      1 CA         27.2567   18.1764    0.0209 C.3       0 UNK        -0.1979 
      2 C          28.2224   19.2526    0.4934 C.2       0 UNK         0.4864 
      3 O          28.4959   19.3439    1.6911 O.2       0 UNK        -0.5359 
      4 N          28.7286   20.0775   -0.4349 N.am      1 UNK        -0.4318 
      5 CA         29.6835   21.1816   -0.2412 C.3       1 UNK         0.0824 
      6 C6         31.0235   20.7284    0.4026 C.3       12 UNK        -0.0944 
      7 S7         32.4608   21.6369   -0.2576 S.3       12 UNK        -0.2672 
      8 C8         33.2785   22.2205    1.2599 C.3       12 UNK         0.0333 
      9 C9         32.6105   23.4629    1.8297 C.ar      12 UNK        -0.0807 
     10 C10        31.7490   23.3672    2.9262 C.ar      12 UNK        -0.0894 
     11 C11        31.1649   24.5144    3.4723 C.ar      12 UNK        -0.0804 
     12 C12        31.4348   25.7628    2.9034 C.ar      12 UNK        -0.0824 
     13 C13        32.3117   25.8723    1.8191 C.ar      12 UNK        -0.0762 
     14 C14        32.8910   24.7188    1.2834 C.ar      12 UNK        -0.0782 
     15 C15        32.6840   27.2396    1.2640 C.3       12 UNK         0.0230 
     16 S16        31.9744   27.5670   -0.3847 S.3       12 UNK        -0.2608 
     17 C17        30.1769   27.5402   -0.0781 C.3       12 UNK        -0.0989 
     18 CA         29.5785   28.9366    0.2397 C.3       5 UNK         0.0716 
     19 N          28.1615   28.9922   -0.1366 N.am      5 UNK        -0.4135 
     20 C          27.2802   29.9649    0.1439 C.2       4 UNK         0.5031 
     21 O          27.5897   31.0502    0.6367 O.2       4 UNK        -0.5229 
     22 CA         25.7891   29.6417   -0.0816 C.3       4 UNK         0.0329 
     23 CB         25.2911   30.3075   -1.3737 C.3       4 UNK        -0.2001 
     24 N          25.4635   28.2058   -0.1152 N.am      4 UNK        -0.4303 
     25 C          25.7604   27.3040    0.8347 C.2       3 UNK         0.5044 
     26 O          26.3506   27.5906    1.8819 O.2       3 UNK        -0.5152 
     27 CA         25.4296   25.8303    0.5402 C.3       3 UNK         0.0319 
     28 CB         25.5454   25.4851   -0.9653 C.3       3 UNK        -0.2001 
     29 N          26.3601   25.0346    1.3376 N.am      3 UNK        -0.4354 
     30 C          26.4178   23.7066    1.4605 C.2       2 UNK         0.4964 
     31 O          25.6216   22.9202    0.9424 O.2       2 UNK        -0.5047 
     32 CA         27.5731   23.1634    2.3179 C.3       2 UNK         0.0288 
     33 CB         27.0408   22.5299    3.6142 C.3       2 UNK        -0.2113 
     34 N          28.3529   22.1713    1.5801 N.am      2 UNK        -0.4145 
     35 C          29.0666   22.4071    0.4702 C.2       1 UNK         0.5006 
     36 O          29.2172   23.5289   -0.0172 O.2       1 UNK        -0.5103 
     37 C          29.8175   29.3022    1.7208 C.2       5 UNK         0.5055 
     38 O          30.7543   30.0453    2.0158 O.2       5 UNK        -0.5220 
     39 N          28.9388   28.8253    2.6173 N.am      6 UNK        -0.4450 
     40 CA         28.9839   29.0860    4.0580 C.3       6 UNK         0.0367 
     41 CB         27.9362   28.2108    4.7629 C.3       6 UNK        -0.1929 
     42 C          28.8000   30.5661    4.4450 C.2       6 UNK         0.5070 
     43 O          29.2047   30.9411    5.5449 O.2       6 UNK        -0.5237 
     44 N          28.2191   31.3759    3.5504 N.am      7 UNK        -0.4739 
     45 CA         28.1174   32.8279    3.6905 C.3       7 UNK         0.0276 
     46 CB         26.6984   33.2780    3.3044 C.3       7 UNK        -0.1927 
     47 C          29.1644   33.5402    2.8202 C.2       7 UNK         0.5013 
     48 O          29.7846   34.4953    3.2880 O.2       7 UNK        -0.5193 
     49 N          29.3269   33.0827    1.5700 N.am      8 UNK        -0.4253 
     50 CA         30.1708   33.7135    0.5532 C.3       8 UNK         0.0242 
     51 CB         29.8116   33.1455   -0.8299 C.3       8 UNK        -0.2000 
     52 C          31.6803   33.5829    0.8147 C.2       8 UNK         0.4948 
     53 O          32.4006   34.5688    0.6505 O.2       8 UNK        -0.5275 
     54 N          32.1320   32.3787    1.1867 N.am      9 UNK        -0.4246 
     55 CA         33.5452   32.0455    1.4023 C.3       9 UNK         0.0261 
     56 CB         33.9378   30.9113    0.4422 C.3       9 UNK        -0.1959 
     57 C          33.8464   31.6403    2.8548 C.2       9 UNK         0.5033 
     58 O          35.0056   31.7358    3.2603 O.2       9 UNK        -0.5390 
     59 N          32.8097   31.2160    3.5925 N.am      10 UNK        -0.4215 
     60 CA         32.7911   30.6680    4.9527 C.3       10 UNK         0.0240 
     61 CB         33.6374   31.4780    5.9559 C.3       10 UNK        -0.1982 
     62 C          33.1495   29.1746    4.9678 C.2       10 UNK         0.4970 
     63 O          34.0528   28.7369    4.2531 O.2       10 UNK        -0.4916 
     64 N          32.4150   28.4209    5.7914 N.am      11 UNK        -0.4279 
     65 CA         32.6115   26.9855    6.0204 C.3       11 UNK         0.1003 
     66 C          33.7851   26.7223    7.0026 C.2       11 UNK         0.5709 
     67 N          34.5532   25.6630    6.7889 N.am      11 UNK        -0.7358 
     68 O          33.9867   27.4547    7.9701 O.2       11 UNK        -0.4999 
     69 C69        31.2813   26.3423    6.4944 C.3       12 UNK        -0.0954 
     70 S70        31.2072   24.5371    6.2406 S.3       12 UNK        -0.2268 
     71 C71        30.2619   24.3967    4.6903 C.3       12 UNK         0.0203 
     72 H72        26.2868   18.3071    0.5001 H         1 UNK         0.0888 
     73 H73        27.1085   18.2054   -1.0585 H         1 UNK         0.0888 
     74 H74        27.6372   17.1900    0.2843 H         1 UNK         0.0888 
     75 H75        28.4276   19.9557   -1.3924 H         1 UNK         0.3017 
     76 H76        29.8999   21.5102   -1.2593 H         1 UNK         0.0873 
     77 H77        30.9864   20.7922    1.4915 H         1 UNK         0.0745 
     78 H78        31.2064   19.6756    0.1819 H         1 UNK         0.0745 
     79 H79        34.3198   22.4485    1.0271 H         1 UNK         0.0705 
     80 H80        33.3059   21.4173    1.9982 H         1 UNK         0.0705 
     81 H81        31.5442   22.4010    3.3666 H         1 UNK         0.1334 
     82 H82        30.9918   26.6521    3.3294 H         1 UNK         0.1417 
     83 H83        33.5701   24.8005    0.4453 H         1 UNK         0.1562 
     84 H84        33.7704   27.3037    1.1886 H         1 UNK         0.0748 
     85 H85        32.3975   28.0279    1.9589 H         1 UNK         0.0748 
     86 H86        29.9258   26.7995    0.6836 H         1 UNK         0.0940 
     87 H87        29.7364   27.1527   -0.9983 H         1 UNK         0.0940 
     88 H88        30.0849   29.6862   -0.3709 H         1 UNK         0.0703 
     89 H89        27.7892   28.1559   -0.5594 H         1 UNK         0.3081 
     90 H90        25.2434   30.0751    0.7589 H         1 UNK         0.0719 
     91 H91        25.7756   29.8896   -2.2571 H         1 UNK         0.0809 
     92 H92        24.2138   30.1897   -1.4924 H         1 UNK         0.0809 
     93 H93        25.4973   31.3791   -1.3655 H         1 UNK         0.0809 
     94 H94        24.9889   27.8777   -0.9442 H         1 UNK         0.2990 
     95 H95        24.4137   25.6345    0.8874 H         1 UNK         0.0690 
     96 H96        26.5420   25.7012   -1.3528 H         1 UNK         0.0788 
     97 H97        24.8248   26.0426   -1.5643 H         1 UNK         0.0788 
     98 H98        25.3428   24.4320   -1.1569 H         1 UNK         0.0788 
     99 H99        27.0083   25.6102    1.8612 H         1 UNK         0.2993 
    100 H100       28.2458   23.9830    2.5772 H         1 UNK         0.0949 
    101 H101       26.3427   21.7175    3.4069 H         1 UNK         0.0767 
    102 H102       27.8474   22.1231    4.2236 H         1 UNK         0.0767 
    103 H103       26.5136   23.2677    4.2204 H         1 UNK         0.0767 
    104 H104       28.2697   21.2010    1.8729 H         1 UNK         0.3013 
    105 H105       28.1367   28.2949    2.2871 H         1 UNK         0.3121 
    106 H106       29.9711   28.7841    4.4094 H         1 UNK         0.0774 
    107 H107       27.9954   28.3257    5.8461 H         1 UNK         0.0815 
    108 H108       26.9224   28.4779    4.4617 H         1 UNK         0.0815 
    109 H109       28.0822   27.1542    4.5408 H         1 UNK         0.0815 
    110 H110       27.9299   30.9894    2.6591 H         1 UNK         0.2987 
    111 H111       28.2921   33.1242    4.7274 H         1 UNK         0.0949 
    112 H112       26.4515   33.0137    2.2753 H         1 UNK         0.0806 
    113 H113       25.9505   32.8232    3.9540 H         1 UNK         0.0806 
    114 H114       26.5936   34.3598    3.3979 H         1 UNK         0.0806 
    115 H115       28.7405   32.3123    1.2551 H         1 UNK         0.3010 
    116 H116       29.9338   34.7797    0.5462 H         1 UNK         0.0829 
    117 H117       30.4029   33.6209   -1.6137 H         1 UNK         0.0813 
    118 H118       29.9950   32.0725   -0.8876 H         1 UNK         0.0813 
    119 H119       28.7614   33.3165   -1.0676 H         1 UNK         0.0813 
    120 H120       31.4661   31.6216    1.3174 H         1 UNK         0.3038 
    121 H121       34.1781   32.9069    1.1790 H         1 UNK         0.0769 
    122 H122       34.9863   30.6369    0.5657 H         1 UNK         0.0811 
    123 H123       33.7983   31.2052   -0.5981 H         1 UNK         0.0811 
    124 H124       33.3429   30.0167    0.6203 H         1 UNK         0.0811 
    125 H125       31.9404   31.0736    3.0868 H         1 UNK         0.3204 
    126 H126       31.7541   30.7618    5.2705 H         1 UNK         0.0748 
    127 H127       33.4345   31.1574    6.9784 H         1 UNK         0.0771 
    128 H128       34.7070   31.3474    5.7894 H         1 UNK         0.0771 
    129 H129       33.4127   32.5430    5.8985 H         1 UNK         0.0771 
    130 H130       31.7413   28.8706    6.3937 H         1 UNK         0.2980 
    131 H131       32.8832   26.5404    5.0624 H         1 UNK         0.0545 
    132 H132       35.3126   25.4705    7.4228 H         1 UNK         0.3459 
    133 H133       34.3742   25.0423    6.0151 H         1 UNK         0.3459 
    134 H134       31.1046   26.5513    7.5512 H         1 UNK         0.0616 
    135 H135       30.4377   26.7888    5.9670 H         1 UNK         0.0616 
    136 H136       29.7691   23.4245    4.6841 H         1 UNK         0.0634 
    137 H137       29.4641   25.1390    4.6570 H         1 UNK         0.0634 
@<TRIPOS>BOND
     1    1    2 1    
     2    1   72 1    
     3    1   73 1    
     4    1   74 1    
     5    2    3 2    
     6    2    4 am   BACKBONE|DICT|INTERRES
     7    4    5 1    
     8    4   75 1    
     9    5    6 1    
    10    5   35 1    
    11    5   76 1    
    12    6    7 1    
    13    6   77 1    
    14    6   78 1    
    15    7    8 1    
    16    8    9 1    
    17    8   79 1    
    18    8   80 1    
    19    9   10 ar   
    20    9   14 ar   
    21   10   11 ar   
    22   10   81 1    
    23   11   12 ar   
    24   11   71 1    
    25   12   13 ar   
    26   12   82 1    
    27   13   14 ar   
    28   13   15 1    
    29   14   83 1    
    30   15   16 1    
    31   15   84 1    
    32   15   85 1    
    33   16   17 1    
    34   17   18 1    
    35   17   86 1    
    36   17   87 1    
    37   18   19 1    
    38   18   37 1    
    39   18   88 1    
    40   19   20 am   BACKBONE|DICT|INTERRES
    41   19   89 1    
    42   20   21 2    
    43   20   22 1    
    44   22   23 1    
    45   22   24 1    
    46   22   90 1    
    47   23   91 1    
    48   23   92 1    
    49   23   93 1    
    50   24   25 am   BACKBONE|DICT|INTERRES
    51   24   94 1    
    52   25   26 2    
    53   25   27 1    
    54   27   28 1    
    55   27   29 1    
    56   27   95 1    
    57   28   96 1    
    58   28   97 1    
    59   28   98 1    
    60   29   30 am   BACKBONE|DICT|INTERRES
    61   29   99 1    
    62   30   31 2    
    63   30   32 1    
    64   32   33 1    
    65   32   34 1    
    66   32  100 1    
    67   33  101 1    
    68   33  102 1    
    69   33  103 1    
    70   34   35 am   BACKBONE|DICT|INTERRES
    71   34  104 1    
    72   35   36 2    
    73   37   38 2    
    74   37   39 am   BACKBONE|DICT|INTERRES
    75   39   40 1    
    76   39  105 1    
    77   40   41 1    
    78   40   42 1    
    79   40  106 1    
    80   41  107 1    
    81   41  108 1    
    82   41  109 1    
    83   42   43 2    
    84   42   44 am   BACKBONE|DICT|INTERRES
    85   44   45 1    
    86   44  110 1    
    87   45   46 1    
    88   45   47 1    
    89   45  111 1    
    90   46  112 1    
    91   46  113 1    
    92   46  114 1    
    93   47   48 2    
    94   47   49 am   BACKBONE|DICT|INTERRES
    95   49   50 1    
    96   49  115 1    
    97   50   51 1    
    98   50   52 1    
    99   50  116 1    
   100   51  117 1    
   101   51  118 1    
   102   51  119 1    
   103   52   53 2    
   104   52   54 am   BACKBONE|DICT|INTERRES
   105   54   55 1    
   106   54  120 1    
   107   55   56 1    
   108   55   57 1    
   109   55  121 1    
   110   56  122 1    
   111   56  123 1    
   112   56  124 1    
   113   57   58 2    
   114   57   59 am   BACKBONE|DICT|INTERRES
   115   59   60 1    
   116   59  125 1    
   117   60   61 1    
   118   60   62 1    
   119   60  126 1    
   120   61  127 1    
   121   61  128 1    
   122   61  129 1    
   123   62   63 2    
   124   62   64 am   BACKBONE|DICT|INTERRES
   125   64   65 1    
   126   64  130 1    
   127   65   66 1    
   128   65   69 1    
   129   65  131 1    
   130   66   67 am   BACKBONE|DICT|INTERRES
   131   66   68 2    
   132   67  132 1    
   133   67  133 1    
   134   69   70 1    
   135   69  134 1    
   136   69  135 1    
   137   70   71 1    
   138   71  136 1    
   139   71  137 1    
@<TRIPOS>SUBSTRUCTURE
     1 UNK         1 GROUP             0       ****    0 ROOT    
