@<TRIPOS>MOLECULE
3R136
137   139    1
SMALL
USER_CHARGES


@<TRIPOS>ATOM
      1 CA         27.4350   25.0020    5.0094 C.3       0 UNK        -0.1979 
      2 C          27.7330   23.8913    4.0144 C.2       0 UNK         0.4864 
      3 O          27.2192   22.7815    4.1640 O.2       0 UNK        -0.5359 
      4 N          28.5616   24.1821    3.0034 N.am      1 UNK        -0.4318 
      5 CA         28.8961   23.2730    1.9034 C.3       1 UNK         0.0824 
      6 C6         30.1695   23.7302    1.1453 C.3       12 UNK        -0.0944 
      7 S7         30.0800   25.4228    0.4595 S.3       12 UNK        -0.2672 
      8 C8         31.4262   26.2528    1.3609 C.3       12 UNK         0.0333 
      9 C9         31.0406   26.5469    2.8037 C.ar      12 UNK        -0.0807 
     10 C10        31.5174   25.7496    3.8464 C.ar      12 UNK        -0.0894 
     11 C11        31.1546   26.0261    5.1675 C.ar      12 UNK        -0.0804 
     12 C12        30.2706   27.0754    5.4346 C.ar      12 UNK        -0.0824 
     13 C13        29.7716   27.8742    4.4023 C.ar      12 UNK        -0.0762 
     14 C14        30.2096   27.6305    3.0959 C.ar      12 UNK        -0.0782 
     15 C15        28.7758   28.9815    4.7580 C.3       12 UNK         0.0230 
     16 S16        27.9710   29.8395    3.3565 S.3       12 UNK        -0.2608 
     17 C17        26.7499   28.6301    2.7267 C.3       12 UNK        -0.0989 
     18 CA         27.1803   27.8810    1.4310 C.3       5 UNK         0.0716 
     19 N          26.1848   26.9256    0.9440 N.am      5 UNK        -0.4135 
     20 C          24.9376   27.1726    0.5151 C.2       4 UNK         0.5031 
     21 O          24.3673   28.2619    0.5882 O.2       4 UNK        -0.5229 
     22 CA         24.2189   25.9662   -0.1129 C.3       4 UNK         0.0329 
     23 CB         22.8679   26.3153   -0.7746 C.3       4 UNK        -0.2001 
     24 N          25.1148   25.2486   -1.0266 N.am      4 UNK        -0.4303 
     25 C          25.6006   25.6539   -2.2118 C.2       3 UNK         0.5044 
     26 O          25.2417   26.6828   -2.7847 O.2       3 UNK        -0.5152 
     27 CA         26.7073   24.7910   -2.8635 C.3       3 UNK         0.0319 
     28 CB         27.9721   25.6340   -3.1028 C.3       3 UNK        -0.2001 
     29 N          27.0862   23.6138   -2.0752 N.am      3 UNK        -0.4354 
     30 C          26.3375   22.5166   -1.8993 C.2       2 UNK         0.4964 
     31 O          25.2914   22.3048   -2.5126 O.2       2 UNK        -0.5047 
     32 CA         26.7935   21.5062   -0.8268 C.3       2 UNK         0.0288 
     33 CB         27.3206   20.2240   -1.4930 C.3       2 UNK        -0.2113 
     34 N          27.7989   21.9870    0.1341 N.am      2 UNK        -0.4145 
     35 C          27.7036   23.0525    0.9464 C.2       1 UNK         0.5006 
     36 O          26.7646   23.8561    0.9243 O.2       1 UNK        -0.5103 
     37 C          27.6579   28.8058    0.2849 C.2       5 UNK         0.5055 
     38 O          26.9897   29.7895   -0.0381 O.2       5 UNK        -0.5220 
     39 N          28.8136   28.4677   -0.3100 N.am      6 UNK        -0.4450 
     40 CA         29.4546   29.2363   -1.3844 C.3       6 UNK         0.0367 
     41 CB         30.6309   28.4360   -1.9686 C.3       6 UNK        -0.1929 
     42 C          29.9256   30.6380   -0.9498 C.2       6 UNK         0.5070 
     43 O          29.7519   31.5922   -1.7086 O.2       6 UNK        -0.5237 
     44 N          30.4984   30.7431    0.2556 N.am      7 UNK        -0.4739 
     45 CA         30.9014   31.9921    0.8983 C.3       7 UNK         0.0276 
     46 CB         32.2554   32.4840    0.3553 C.3       7 UNK        -0.1927 
     47 C          30.9534   31.7528    2.4102 C.2       7 UNK         0.5013 
     48 O          31.3119   30.6510    2.8328 O.2       7 UNK        -0.5193 
     49 N          30.5969   32.7873    3.1837 N.am      8 UNK        -0.4253 
     50 CA         30.2670   32.7472    4.6160 C.3       8 UNK         0.0242 
     51 CB         29.9428   34.1747    5.0882 C.3       8 UNK        -0.2000 
     52 C          31.2943   32.1013    5.5647 C.2       8 UNK         0.4948 
     53 O          30.8973   31.6399    6.6357 O.2       8 UNK        -0.5275 
     54 N          32.5755   32.0893    5.1814 N.am      9 UNK        -0.4246 
     55 CA         33.6701   31.5088    5.9608 C.3       9 UNK         0.0261 
     56 CB         34.4343   32.6366    6.6817 C.3       9 UNK        -0.1959 
     57 C          34.5882   30.6369    5.0891 C.2       9 UNK         0.5033 
     58 O          35.7681   30.4974    5.4160 O.2       9 UNK        -0.5390 
     59 N          34.0553   30.0606    3.9996 N.am      10 UNK        -0.4215 
     60 CA         34.8121   29.2639    3.0242 C.3       10 UNK         0.0240 
     61 CB         33.8851   28.8511    1.8757 C.3       10 UNK        -0.1982 
     62 C          35.5260   28.0281    3.6038 C.2       10 UNK         0.4970 
     63 O          36.6154   27.6987    3.1325 O.2       10 UNK        -0.4916 
     64 N          34.9242   27.3836    4.6126 N.am      11 UNK        -0.4279 
     65 CA         35.5436   26.2876    5.3757 C.3       11 UNK         0.1003 
     66 C          36.5307   26.7452    6.4925 C.2       11 UNK         0.5709 
     67 N          36.7580   28.0359    6.7104 N.am      11 UNK        -0.7358 
     68 O          37.1248   25.9065    7.1663 O.2       11 UNK        -0.4999 
     69 C69        34.4993   25.2533    5.8750 C.3       12 UNK        -0.0954 
     70 S70        33.2252   25.9296    6.9956 S.3       12 UNK        -0.2268 
     71 C71        31.7053   25.1935    6.3134 C.3       12 UNK         0.0203 
     72 H72        26.3855   24.9779    5.3015 H         1 UNK         0.0888 
     73 H73        28.0438   24.8790    5.9047 H         1 UNK         0.0888 
     74 H74        27.6399   25.9829    4.5845 H         1 UNK         0.0888 
     75 H75        28.9756   25.1012    2.9408 H         1 UNK         0.3017 
     76 H76        29.1164   22.3015    2.3517 H         1 UNK         0.0873 
     77 H77        30.4026   23.0468    0.3269 H         1 UNK         0.0745 
     78 H78        31.0252   23.6582    1.8174 H         1 UNK         0.0745 
     79 H79        32.3349   25.6505    1.3117 H         1 UNK         0.0705 
     80 H80        31.6545   27.1852    0.8461 H         1 UNK         0.0705 
     81 H81        32.1767   24.9210    3.6301 H         1 UNK         0.1334 
     82 H82        29.9715   27.2730    6.4553 H         1 UNK         0.1417 
     83 H83        29.8990   28.2793    2.2943 H         1 UNK         0.1562 
     84 H84        29.3076   29.7294    5.3459 H         1 UNK         0.0748 
     85 H85        27.9997   28.5779    5.4098 H         1 UNK         0.0748 
     86 H86        25.8266   29.1829    2.5489 H         1 UNK         0.0940 
     87 H87        26.5150   27.9118    3.5127 H         1 UNK         0.0940 
     88 H88        28.0140   27.2401    1.7046 H         1 UNK         0.0703 
     89 H89        26.5131   25.9702    0.8520 H         1 UNK         0.3081 
     90 H90        24.0101   25.2769    0.7068 H         1 UNK         0.0719 
     91 H91        22.1665   26.7068   -0.0370 H         1 UNK         0.0809 
     92 H92        22.9744   27.0747   -1.5496 H         1 UNK         0.0809 
     93 H93        22.4078   25.4362   -1.2255 H         1 UNK         0.0809 
     94 H94        25.5347   24.4172   -0.6260 H         1 UNK         0.2990 
     95 H95        26.3284   24.4522   -3.8299 H         1 UNK         0.0690 
     96 H96        28.3786   26.0149   -2.1657 H         1 UNK         0.0788 
     97 H97        27.7600   26.4945   -3.7390 H         1 UNK         0.0788 
     98 H98        28.7515   25.0538   -3.5972 H         1 UNK         0.0788 
     99 H99        27.9306   23.6970   -1.5281 H         1 UNK         0.2993 
    100 H100       25.9029   21.2483   -0.2498 H         1 UNK         0.0949 
    101 H101       26.5876   19.8123   -2.1886 H         1 UNK         0.0767 
    102 H102       28.2357   20.4101   -2.0568 H         1 UNK         0.0767 
    103 H103       27.5306   19.4490   -0.7553 H         1 UNK         0.0767 
    104 H104       28.6230   21.4087    0.2158 H         1 UNK         0.3013 
    105 H105       29.2780   27.6135   -0.0313 H         1 UNK         0.3121 
    106 H106       28.7132   29.3696   -2.1755 H         1 UNK         0.0774 
    107 H107       31.4250   28.2855   -1.2375 H         1 UNK         0.0815 
    108 H108       31.0713   28.9622   -2.8166 H         1 UNK         0.0815 
    109 H109       30.3150   27.4575   -2.3286 H         1 UNK         0.0815 
    110 H110       30.5926   29.9282    0.8466 H         1 UNK         0.2987 
    111 H111       30.1378   32.7464    0.6946 H         1 UNK         0.0949 
    112 H112       33.0516   31.7613    0.5252 H         1 UNK         0.0806 
    113 H113       32.2069   32.6788   -0.7160 H         1 UNK         0.0806 
    114 H114       32.5541   33.4156    0.8375 H         1 UNK         0.0806 
    115 H115       30.3746   33.6564    2.7199 H         1 UNK         0.3010 
    116 H116       29.3550   32.1549    4.7050 H         1 UNK         0.0829 
    117 H117       29.6606   34.1855    6.1422 H         1 UNK         0.0813 
    118 H118       30.7993   34.8404    4.9741 H         1 UNK         0.0813 
    119 H119       29.1080   34.5998    4.5307 H         1 UNK         0.0813 
    120 H120       32.8143   32.4812    4.2810 H         1 UNK         0.3038 
    121 H121       33.2706   30.8339    6.7206 H         1 UNK         0.0769 
    122 H122       34.9070   33.3176    5.9732 H         1 UNK         0.0811 
    123 H123       35.2188   32.2347    7.3242 H         1 UNK         0.0811 
    124 H124       33.7691   33.2216    7.3170 H         1 UNK         0.0811 
    125 H125       33.0698   30.2069    3.7957 H         1 UNK         0.3204 
    126 H126       35.5888   29.9118    2.6127 H         1 UNK         0.0748 
    127 H127       34.3759   28.1626    1.1861 H         1 UNK         0.0771 
    128 H128       32.9978   28.3609    2.2662 H         1 UNK         0.0771 
    129 H129       33.5588   29.7117    1.2963 H         1 UNK         0.0771 
    130 H130       34.0313   27.7119    4.9499 H         1 UNK         0.2980 
    131 H131       36.1779   25.7349    4.6801 H         1 UNK         0.0545 
    132 H132       37.4074   28.2984    7.4341 H         1 UNK         0.3459 
    133 H133       36.3173   28.7585    6.1508 H         1 UNK         0.3459 
    134 H134       34.0167   24.7994    5.0104 H         1 UNK         0.0616 
    135 H135       34.9941   24.4267    6.3878 H         1 UNK         0.0616 
    136 H136       30.9624   25.1279    7.1098 H         1 UNK         0.0634 
    137 H137       31.8943   24.1678    5.9927 H         1 UNK         0.0634 
@<TRIPOS>BOND
     1    1    2 1    
     2    1   72 1    
     3    1   73 1    
     4    1   74 1    
     5    2    3 2    
     6    2    4 am   BACKBONE|DICT|INTERRES
     7    4    5 1    
     8    4   75 1    
     9    5    6 1    
    10    5   35 1    
    11    5   76 1    
    12    6    7 1    
    13    6   77 1    
    14    6   78 1    
    15    7    8 1    
    16    8    9 1    
    17    8   79 1    
    18    8   80 1    
    19    9   10 ar   
    20    9   14 ar   
    21   10   11 ar   
    22   10   81 1    
    23   11   12 ar   
    24   11   71 1    
    25   12   13 ar   
    26   12   82 1    
    27   13   14 ar   
    28   13   15 1    
    29   14   83 1    
    30   15   16 1    
    31   15   84 1    
    32   15   85 1    
    33   16   17 1    
    34   17   18 1    
    35   17   86 1    
    36   17   87 1    
    37   18   19 1    
    38   18   37 1    
    39   18   88 1    
    40   19   20 am   BACKBONE|DICT|INTERRES
    41   19   89 1    
    42   20   21 2    
    43   20   22 1    
    44   22   23 1    
    45   22   24 1    
    46   22   90 1    
    47   23   91 1    
    48   23   92 1    
    49   23   93 1    
    50   24   25 am   BACKBONE|DICT|INTERRES
    51   24   94 1    
    52   25   26 2    
    53   25   27 1    
    54   27   28 1    
    55   27   29 1    
    56   27   95 1    
    57   28   96 1    
    58   28   97 1    
    59   28   98 1    
    60   29   30 am   BACKBONE|DICT|INTERRES
    61   29   99 1    
    62   30   31 2    
    63   30   32 1    
    64   32   33 1    
    65   32   34 1    
    66   32  100 1    
    67   33  101 1    
    68   33  102 1    
    69   33  103 1    
    70   34   35 am   BACKBONE|DICT|INTERRES
    71   34  104 1    
    72   35   36 2    
    73   37   38 2    
    74   37   39 am   BACKBONE|DICT|INTERRES
    75   39   40 1    
    76   39  105 1    
    77   40   41 1    
    78   40   42 1    
    79   40  106 1    
    80   41  107 1    
    81   41  108 1    
    82   41  109 1    
    83   42   43 2    
    84   42   44 am   BACKBONE|DICT|INTERRES
    85   44   45 1    
    86   44  110 1    
    87   45   46 1    
    88   45   47 1    
    89   45  111 1    
    90   46  112 1    
    91   46  113 1    
    92   46  114 1    
    93   47   48 2    
    94   47   49 am   BACKBONE|DICT|INTERRES
    95   49   50 1    
    96   49  115 1    
    97   50   51 1    
    98   50   52 1    
    99   50  116 1    
   100   51  117 1    
   101   51  118 1    
   102   51  119 1    
   103   52   53 2    
   104   52   54 am   BACKBONE|DICT|INTERRES
   105   54   55 1    
   106   54  120 1    
   107   55   56 1    
   108   55   57 1    
   109   55  121 1    
   110   56  122 1    
   111   56  123 1    
   112   56  124 1    
   113   57   58 2    
   114   57   59 am   BACKBONE|DICT|INTERRES
   115   59   60 1    
   116   59  125 1    
   117   60   61 1    
   118   60   62 1    
   119   60  126 1    
   120   61  127 1    
   121   61  128 1    
   122   61  129 1    
   123   62   63 2    
   124   62   64 am   BACKBONE|DICT|INTERRES
   125   64   65 1    
   126   64  130 1    
   127   65   66 1    
   128   65   69 1    
   129   65  131 1    
   130   66   67 am   BACKBONE|DICT|INTERRES
   131   66   68 2    
   132   67  132 1    
   133   67  133 1    
   134   69   70 1    
   135   69  134 1    
   136   69  135 1    
   137   70   71 1    
   138   71  136 1    
   139   71  137 1    
@<TRIPOS>SUBSTRUCTURE
     1 UNK         1 GROUP             0       ****    0 ROOT    
