@<TRIPOS>MOLECULE
3R136
137   139    1
SMALL
USER_CHARGES


@<TRIPOS>ATOM
      1 CA         26.3629   19.0814   -0.1380 C.3       0 UNK        -0.1979 
      2 C          27.5954   19.4090    0.7019 C.2       0 UNK         0.4864 
      3 O          27.7911   18.7925    1.7477 O.2       0 UNK        -0.5359 
      4 N          28.4569   20.3563    0.2995 N.am      1 UNK        -0.4318 
      5 CA         28.3562   21.2140   -0.8903 C.3       1 UNK         0.0824 
      6 C6         29.7128   21.9040   -1.2033 C.3       12 UNK        -0.0944 
      7 S7         30.1830   23.2397   -0.0440 S.3       12 UNK        -0.2672 
      8 C8         31.3250   22.3921    1.0859 C.3       12 UNK         0.0333 
      9 C9         31.6429   23.2854    2.2737 C.ar      12 UNK        -0.0807 
     10 C10        32.7853   24.0884    2.2658 C.ar      12 UNK        -0.0894 
     11 C11        33.0634   24.9371    3.3409 C.ar      12 UNK        -0.0804 
     12 C12        32.1945   24.9733    4.4367 C.ar      12 UNK        -0.0824 
     13 C13        31.0482   24.1712    4.4565 C.ar      12 UNK        -0.0762 
     14 C14        30.7815   23.3261    3.3738 C.ar      12 UNK        -0.0782 
     15 C15        30.0975   24.2045    5.6476 C.3       12 UNK         0.0230 
     16 S16        29.2178   25.7933    5.8234 S.3       12 UNK        -0.2608 
     17 C17        28.4088   25.9955    4.1990 C.3       12 UNK        -0.0989 
     18 CA         28.9166   27.2766    3.4797 C.3       5 UNK         0.0716 
     19 N          29.3152   27.0261    2.0942 N.am      5 UNK        -0.4135 
     20 C          30.1043   27.8390    1.3766 C.2       4 UNK         0.5031 
     21 O          30.6478   28.8459    1.8314 O.2       4 UNK        -0.5229 
     22 CA         30.2821   27.4968   -0.1136 C.3       4 UNK         0.0329 
     23 CB         31.5372   26.6423   -0.3402 C.3       4 UNK        -0.2001 
     24 N          29.1095   26.8243   -0.6850 N.am      4 UNK        -0.4303 
     25 C          27.9515   27.4548   -0.9279 C.2       3 UNK         0.5044 
     26 O          27.7607   28.6455   -0.6815 O.2       3 UNK        -0.5152 
     27 CA         26.8049   26.6210   -1.5222 C.3       3 UNK         0.0319 
     28 CB         27.0196   26.4031   -3.0283 C.3       3 UNK        -0.2001 
     29 N          26.5750   25.3270   -0.8728 N.am      3 UNK        -0.4354 
     30 C          26.3463   25.1169    0.4300 C.2       2 UNK         0.4964 
     31 O          26.4515   25.9861    1.2939 O.2       2 UNK        -0.5047 
     32 CA         25.9317   23.6962    0.8508 C.3       2 UNK         0.0288 
     33 CB         24.4915   23.3730    0.4062 C.3       2 UNK        -0.2113 
     34 N          26.8778   22.6535    0.4382 N.am      2 UNK        -0.4145 
     35 C          27.2073   22.2431   -0.7974 C.2       1 UNK         0.5006 
     36 O          26.6749   22.6527   -1.8303 O.2       1 UNK        -0.5103 
     37 C          27.8909   28.4258    3.5508 C.2       5 UNK         0.5055 
     38 O          28.0399   29.3263    4.3769 O.2       5 UNK        -0.5220 
     39 N          26.8902   28.3938    2.6564 N.am      6 UNK        -0.4450 
     40 CA         25.8530   29.4183    2.5011 C.3       6 UNK         0.0367 
     41 CB         24.8246   28.9568    1.4570 C.3       6 UNK        -0.1929 
     42 C          26.4116   30.8048    2.1381 C.2       6 UNK         0.5070 
     43 O          25.8616   31.8119    2.5858 O.2       6 UNK        -0.5237 
     44 N          27.5250   30.8432    1.3930 N.am      7 UNK        -0.4739 
     45 CA         28.3223   32.0371    1.0917 C.3       7 UNK         0.0276 
     46 CB         29.2223   31.7357   -0.1209 C.3       7 UNK        -0.1927 
     47 C          29.1271   32.5350    2.3140 C.2       7 UNK         0.5013 
     48 O          30.3501   32.6715    2.2370 O.2       7 UNK        -0.5193 
     49 N          28.4225   32.7704    3.4319 N.am      8 UNK        -0.4253 
     50 CA         28.8959   33.2821    4.7271 C.3       8 UNK         0.0242 
     51 CB         29.2494   34.7788    4.5954 C.3       8 UNK        -0.2000 
     52 C          30.0459   32.4730    5.3659 C.2       8 UNK         0.4948 
     53 O          30.7845   33.0219    6.1858 O.2       8 UNK        -0.5275 
     54 N          30.1937   31.2006    4.9647 N.am      9 UNK        -0.4246 
     55 CA         31.3038   30.2890    5.2598 C.3       9 UNK         0.0261 
     56 CB         31.1931   29.7547    6.7020 C.3       9 UNK        -0.1959 
     57 C          32.6890   30.8884    4.9383 C.2       9 UNK         0.5033 
     58 O          33.6403   30.6607    5.6888 O.2       9 UNK        -0.5390 
     59 N          32.7848   31.6474    3.8328 N.am      10 UNK        -0.4215 
     60 CA         33.9855   32.3831    3.4080 C.3       10 UNK         0.0240 
     61 CB         33.6618   33.1919    2.1418 C.3       10 UNK        -0.1982 
     62 C          35.2361   31.5110    3.1850 C.2       10 UNK         0.4970 
     63 O          36.3538   32.0087    3.3261 O.2       10 UNK        -0.4916 
     64 N          35.0232   30.2317    2.8632 N.am      11 UNK        -0.4279 
     65 CA         36.0447   29.1794    2.7978 C.3       11 UNK         0.1003 
     66 C          36.6120   28.7181    4.1738 C.2       11 UNK         0.5709 
     67 N          36.0412   29.1066    5.3081 N.am      11 UNK        -0.7358 
     68 O          37.6065   27.9973    4.2108 O.2       11 UNK        -0.4999 
     69 C69        35.5522   27.9826    1.9432 C.3       12 UNK        -0.0954 
     70 S70        33.8978   27.3730    2.4212 S.3       12 UNK        -0.2268 
     71 C71        34.2910   25.8304    3.2923 C.3       12 UNK         0.0203 
     72 H72        26.6176   18.9382   -1.1872 H         1 UNK         0.0888 
     73 H73        25.9017   18.1580    0.2120 H         1 UNK         0.0888 
     74 H74        25.6182   19.8726   -0.0585 H         1 UNK         0.0888 
     75 H75        29.2698   20.5226    0.8731 H         1 UNK         0.3017 
     76 H76        28.1306   20.5690   -1.7413 H         1 UNK         0.0873 
     77 H77        30.5127   21.1629   -1.2484 H         1 UNK         0.0745 
     78 H78        29.6735   22.3430   -2.2022 H         1 UNK         0.0745 
     79 H79        30.8852   21.4577    1.4352 H         1 UNK         0.0705 
     80 H80        32.2367   22.1259    0.5487 H         1 UNK         0.0705 
     81 H81        33.4479   24.0714    1.4111 H         1 UNK         0.1334 
     82 H82        32.4000   25.6355    5.2668 H         1 UNK         0.1417 
     83 H83        29.8952   22.7065    3.3794 H         1 UNK         0.1562 
     84 H84        30.6643   24.0152    6.5603 H         1 UNK         0.0748 
     85 H85        29.3604   23.4029    5.5779 H         1 UNK         0.0748 
     86 H86        27.3270   26.0028    4.3497 H         1 UNK         0.0940 
     87 H87        28.5940   25.1086    3.5931 H         1 UNK         0.0940 
     88 H88        29.8160   27.6285    3.9890 H         1 UNK         0.0703 
     89 H89        28.8762   26.2465    1.6274 H         1 UNK         0.3081 
     90 H90        30.4214   28.4369   -0.6522 H         1 UNK         0.0719 
     91 H91        32.4360   27.2200   -0.1251 H         1 UNK         0.0809 
     92 H92        31.6144   26.3011   -1.3725 H         1 UNK         0.0809 
     93 H93        31.5536   25.7683    0.3092 H         1 UNK         0.0809 
     94 H94        29.1927   25.8408   -0.9018 H         1 UNK         0.2990 
     95 H95        25.8892   27.2019   -1.3960 H         1 UNK         0.0690 
     96 H96        26.1505   25.9321   -3.4881 H         1 UNK         0.0788 
     97 H97        27.8861   25.7707   -3.2262 H         1 UNK         0.0788 
     98 H98        27.1818   27.3517   -3.5425 H         1 UNK         0.0788 
     99 H99        26.5059   24.5151   -1.4809 H         1 UNK         0.2993 
    100 H100       25.9409   23.6854    1.9423 H         1 UNK         0.0949 
    101 H101       24.1741   22.3979    0.7758 H         1 UNK         0.0767 
    102 H102       23.7905   24.1115    0.7977 H         1 UNK         0.0767 
    103 H103       24.3837   23.3700   -0.6788 H         1 UNK         0.0767 
    104 H104       27.4156   22.2531    1.1941 H         1 UNK         0.3013 
    105 H105       26.8126   27.5803    2.0474 H         1 UNK         0.3121 
    106 H106       25.3445   29.5134    3.4627 H         1 UNK         0.0774 
    107 H107       25.2773   28.8336    0.4730 H         1 UNK         0.0815 
    108 H108       24.0178   29.6839    1.3563 H         1 UNK         0.0815 
    109 H109       24.3717   28.0059    1.7383 H         1 UNK         0.0815 
    110 H110       27.8724   29.9669    1.0196 H         1 UNK         0.2987 
    111 H111       27.6417   32.8431    0.8094 H         1 UNK         0.0949 
    112 H112       29.9376   30.9421    0.0983 H         1 UNK         0.0806 
    113 H113       28.6344   31.4258   -0.9851 H         1 UNK         0.0806 
    114 H114       29.7924   32.6176   -0.4156 H         1 UNK         0.0806 
    115 H115       27.4257   32.5741    3.3754 H         1 UNK         0.3010 
    116 H116       28.0524   33.1965    5.4136 H         1 UNK         0.0829 
    117 H117       30.1244   34.9294    3.9618 H         1 UNK         0.0813 
    118 H118       28.4232   35.3462    4.1672 H         1 UNK         0.0813 
    119 H119       29.4711   35.2202    5.5679 H         1 UNK         0.0813 
    120 H120       29.4772   30.8159    4.3576 H         1 UNK         0.3038 
    121 H121       31.1879   29.4415    4.5839 H         1 UNK         0.0769 
    122 H122       31.9497   28.9938    6.8977 H         1 UNK         0.0811 
    123 H123       31.3288   30.5490    7.4366 H         1 UNK         0.0811 
    124 H124       30.2207   29.2941    6.8775 H         1 UNK         0.0811 
    125 H125       31.9432   31.8091    3.2859 H         1 UNK         0.3204 
    126 H126       34.2279   33.0858    4.2077 H         1 UNK         0.0748 
    127 H127       32.8645   33.9124    2.3262 H         1 UNK         0.0771 
    128 H128       34.5318   33.7544    1.8000 H         1 UNK         0.0771 
    129 H129       33.3447   32.5459    1.3220 H         1 UNK         0.0771 
    130 H130       34.0701   29.9100    2.7764 H         1 UNK         0.2980 
    131 H131       36.9004   29.6071    2.2721 H         1 UNK         0.0545 
    132 H132       35.2126   29.6963    5.3128 H         1 UNK         0.3459 
    133 H133       36.4346   28.7988    6.1823 H         1 UNK         0.3459 
    134 H134       35.4823   28.2982    0.9013 H         1 UNK         0.0616 
    135 H135       36.2758   27.1656    1.9461 H         1 UNK         0.0616 
    136 H136       35.1028   25.3092    2.7830 H         1 UNK         0.0634 
    137 H137       34.6464   26.0602    4.2979 H         1 UNK         0.0634 
@<TRIPOS>BOND
     1    1    2 1    
     2    1   72 1    
     3    1   73 1    
     4    1   74 1    
     5    2    3 2    
     6    2    4 am   BACKBONE|DICT|INTERRES
     7    4    5 1    
     8    4   75 1    
     9    5    6 1    
    10    5   35 1    
    11    5   76 1    
    12    6    7 1    
    13    6   77 1    
    14    6   78 1    
    15    7    8 1    
    16    8    9 1    
    17    8   79 1    
    18    8   80 1    
    19    9   10 ar   
    20    9   14 ar   
    21   10   11 ar   
    22   10   81 1    
    23   11   12 ar   
    24   11   71 1    
    25   12   13 ar   
    26   12   82 1    
    27   13   14 ar   
    28   13   15 1    
    29   14   83 1    
    30   15   16 1    
    31   15   84 1    
    32   15   85 1    
    33   16   17 1    
    34   17   18 1    
    35   17   86 1    
    36   17   87 1    
    37   18   19 1    
    38   18   37 1    
    39   18   88 1    
    40   19   20 am   BACKBONE|DICT|INTERRES
    41   19   89 1    
    42   20   21 2    
    43   20   22 1    
    44   22   23 1    
    45   22   24 1    
    46   22   90 1    
    47   23   91 1    
    48   23   92 1    
    49   23   93 1    
    50   24   25 am   BACKBONE|DICT|INTERRES
    51   24   94 1    
    52   25   26 2    
    53   25   27 1    
    54   27   28 1    
    55   27   29 1    
    56   27   95 1    
    57   28   96 1    
    58   28   97 1    
    59   28   98 1    
    60   29   30 am   BACKBONE|DICT|INTERRES
    61   29   99 1    
    62   30   31 2    
    63   30   32 1    
    64   32   33 1    
    65   32   34 1    
    66   32  100 1    
    67   33  101 1    
    68   33  102 1    
    69   33  103 1    
    70   34   35 am   BACKBONE|DICT|INTERRES
    71   34  104 1    
    72   35   36 2    
    73   37   38 2    
    74   37   39 am   BACKBONE|DICT|INTERRES
    75   39   40 1    
    76   39  105 1    
    77   40   41 1    
    78   40   42 1    
    79   40  106 1    
    80   41  107 1    
    81   41  108 1    
    82   41  109 1    
    83   42   43 2    
    84   42   44 am   BACKBONE|DICT|INTERRES
    85   44   45 1    
    86   44  110 1    
    87   45   46 1    
    88   45   47 1    
    89   45  111 1    
    90   46  112 1    
    91   46  113 1    
    92   46  114 1    
    93   47   48 2    
    94   47   49 am   BACKBONE|DICT|INTERRES
    95   49   50 1    
    96   49  115 1    
    97   50   51 1    
    98   50   52 1    
    99   50  116 1    
   100   51  117 1    
   101   51  118 1    
   102   51  119 1    
   103   52   53 2    
   104   52   54 am   BACKBONE|DICT|INTERRES
   105   54   55 1    
   106   54  120 1    
   107   55   56 1    
   108   55   57 1    
   109   55  121 1    
   110   56  122 1    
   111   56  123 1    
   112   56  124 1    
   113   57   58 2    
   114   57   59 am   BACKBONE|DICT|INTERRES
   115   59   60 1    
   116   59  125 1    
   117   60   61 1    
   118   60   62 1    
   119   60  126 1    
   120   61  127 1    
   121   61  128 1    
   122   61  129 1    
   123   62   63 2    
   124   62   64 am   BACKBONE|DICT|INTERRES
   125   64   65 1    
   126   64  130 1    
   127   65   66 1    
   128   65   69 1    
   129   65  131 1    
   130   66   67 am   BACKBONE|DICT|INTERRES
   131   66   68 2    
   132   67  132 1    
   133   67  133 1    
   134   69   70 1    
   135   69  134 1    
   136   69  135 1    
   137   70   71 1    
   138   71  136 1    
   139   71  137 1    
@<TRIPOS>SUBSTRUCTURE
     1 UNK         1 GROUP             0       ****    0 ROOT    
