@<TRIPOS>MOLECULE
3R136
137   139    1
SMALL
USER_CHARGES


@<TRIPOS>ATOM
      1 CA         26.3479   19.9355    2.5112 C.3       0 UNK        -0.1979 
      2 C          26.9001   21.1491    1.7802 C.2       0 UNK         0.4864 
      3 O          26.1691   22.1185    1.5704 O.2       0 UNK        -0.5359 
      4 N          28.1888   21.1142    1.4063 N.am      1 UNK        -0.4318 
      5 CA         28.8910   22.1733    0.6659 C.3       1 UNK         0.0824 
      6 C6         30.3498   21.7678    0.3297 C.3       12 UNK        -0.0944 
      7 S7         30.9883   22.5966   -1.1670 S.3       12 UNK        -0.2672 
      8 C8         32.6199   23.1987   -0.6203 C.3       12 UNK         0.0333 
      9 C9         32.5058   24.4483    0.2400 C.ar      12 UNK        -0.0807 
     10 C10        32.5937   24.3600    1.6325 C.ar      12 UNK        -0.0894 
     11 C11        32.4636   25.5048    2.4234 C.ar      12 UNK        -0.0804 
     12 C12        32.2279   26.7389    1.8125 C.ar      12 UNK        -0.0824 
     13 C13        32.1739   26.8495    0.4205 C.ar      12 UNK        -0.0762 
     14 C14        32.3237   25.6983   -0.3612 C.ar      12 UNK        -0.0782 
     15 C15        31.9562   28.2193   -0.2201 C.3       12 UNK         0.0230 
     16 S16        30.6156   28.2543   -1.4598 S.3       12 UNK        -0.2608 
     17 C17        29.3170   27.3375   -0.5742 C.3       12 UNK        -0.0989 
     18 CA         27.8946   27.5703   -1.1244 C.3       5 UNK         0.0716 
     19 N          27.0123   26.4706   -0.7324 N.am      5 UNK        -0.4135 
     20 C          25.7906   26.2402   -1.2283 C.2       4 UNK         0.5031 
     21 O          25.2562   26.9390   -2.0911 O.2       4 UNK        -0.5229 
     22 CA         25.0455   25.0025   -0.6973 C.3       4 UNK         0.0329 
     23 CB         25.4680   23.7467   -1.4765 C.3       4 UNK        -0.2001 
     24 N          25.2420   24.7688    0.7351 N.am      4 UNK        -0.4303 
     25 C          24.7404   25.5403    1.7104 C.2       3 UNK         0.5044 
     26 O          24.0466   26.5375    1.5091 O.2       3 UNK        -0.5152 
     27 CA         25.0501   25.1219    3.1563 C.3       3 UNK         0.0319 
     28 CB         24.0634   24.0436    3.6340 C.3       3 UNK        -0.2001 
     29 N          26.4201   24.6254    3.2902 N.am      3 UNK        -0.4354 
     30 C          27.4820   25.4050    3.5413 C.2       2 UNK         0.4964 
     31 O          27.4056   26.6131    3.7643 O.2       2 UNK        -0.5047 
     32 CA         28.8695   24.7339    3.5569 C.3       2 UNK         0.0288 
     33 CB         29.2542   24.3513    4.9958 C.3       2 UNK        -0.2113 
     34 N          28.9815   23.5484    2.7020 N.am      2 UNK        -0.4145 
     35 C          28.8157   23.5439    1.3707 C.2       1 UNK         0.5006 
     36 O          28.5248   24.5442    0.7181 O.2       1 UNK        -0.5103 
     37 C          27.3373   28.9362   -0.6785 C.2       5 UNK         0.5055 
     38 O          26.8779   29.0716    0.4580 O.2       5 UNK        -0.5220 
     39 N          27.4146   29.9255   -1.5772 N.am      6 UNK        -0.4450 
     40 CA         26.9810   31.3022   -1.3302 C.3       6 UNK         0.0367 
     41 CB         26.4972   31.9162   -2.6547 C.3       6 UNK        -0.1929 
     42 C          28.0821   32.1801   -0.7085 C.2       6 UNK         0.5070 
     43 O          27.7591   33.2293   -0.1499 O.2       6 UNK        -0.5237 
     44 N          29.3541   31.7746   -0.8357 N.am      7 UNK        -0.4739 
     45 CA         30.5055   32.5204   -0.3239 C.3       7 UNK         0.0276 
     46 CB         31.7820   32.0537   -1.0414 C.3       7 UNK        -0.1927 
     47 C          30.6461   32.3574    1.1971 C.2       7 UNK         0.5013 
     48 O          30.5252   31.2410    1.7083 O.2       7 UNK        -0.5193 
     49 N          30.9398   33.4654    1.8882 N.am      8 UNK        -0.4253 
     50 CA         31.1226   33.5337    3.3400 C.3       8 UNK         0.0242 
     51 CB         30.8141   34.9674    3.8130 C.3       8 UNK        -0.2000 
     52 C          32.5262   33.0587    3.7630 C.2       8 UNK         0.4948 
     53 O          33.3109   33.8438    4.3003 O.2       8 UNK        -0.5275 
     54 N          32.8245   31.7823    3.4951 N.am      9 UNK        -0.4246 
     55 CA         34.0446   31.1004    3.9312 C.3       9 UNK         0.0261 
     56 CB         34.2056   29.8038    3.1229 C.3       9 UNK        -0.1959 
     57 C          33.9969   30.7836    5.4359 C.2       9 UNK         0.5033 
     58 O          32.9088   30.6814    6.0095 O.2       9 UNK        -0.5390 
     59 N          35.1762   30.5753    6.0379 N.am      10 UNK        -0.4215 
     60 CA         35.3552   30.2632    7.4635 C.3       10 UNK         0.0240 
     61 CB         36.8575   30.1951    7.7835 C.3       10 UNK        -0.1982 
     62 C          34.6469   28.9777    7.9349 C.2       10 UNK         0.4970 
     63 O          34.2701   28.8950    9.1045 O.2       10 UNK        -0.4916 
     64 N          34.4653   28.0160    7.0217 N.am      11 UNK        -0.4279 
     65 CA         33.6649   26.8003    7.2234 C.3       11 UNK         0.1003 
     66 C          32.1220   27.0160    7.1910 C.2       11 UNK         0.5709 
     67 N          31.6081   28.1926    6.8502 N.am      11 UNK        -0.7358 
     68 O          31.3721   26.0922    7.4960 O.2       11 UNK        -0.4999 
     69 C69        34.1220   25.6528    6.2824 C.3       12 UNK        -0.0954 
     70 S70        34.1634   26.0986    4.5115 S.3       12 UNK        -0.2268 
     71 C71        32.5802   25.4140    3.9363 C.3       12 UNK         0.0203 
     72 H72        25.5172   19.5086    1.9501 H         1 UNK         0.0888 
     73 H73        25.9806   20.2265    3.4949 H         1 UNK         0.0888 
     74 H74        27.1022   19.1604    2.6448 H         1 UNK         0.0888 
     75 H75        28.7338   20.2890    1.6131 H         1 UNK         0.3017 
     76 H76        28.3463   22.2761   -0.2748 H         1 UNK         0.0873 
     77 H77        31.0143   21.9325    1.1792 H         1 UNK         0.0745 
     78 H78        30.4003   20.6974    0.1238 H         1 UNK         0.0745 
     79 H79        33.1461   22.4044   -0.0884 H         1 UNK         0.0705 
     80 H80        33.2227   23.4221   -1.5018 H         1 UNK         0.0705 
     81 H81        32.7630   23.4006    2.1014 H         1 UNK         0.1334 
     82 H82        32.0996   27.6171    2.4271 H         1 UNK         0.1417 
     83 H83        32.2704   25.7720   -1.4390 H         1 UNK         0.1562 
     84 H84        32.8847   28.5404   -0.6934 H         1 UNK         0.0748 
     85 H85        31.7273   28.9633    0.5447 H         1 UNK         0.0748 
     86 H86        29.3656   27.5419    0.4981 H         1 UNK         0.0940 
     87 H87        29.5817   26.2872   -0.6935 H         1 UNK         0.0940 
     88 H88        27.9419   27.5512   -2.2155 H         1 UNK         0.0703 
     89 H89        27.3943   25.8172   -0.0524 H         1 UNK         0.3081 
     90 H90        23.9784   25.1623   -0.8658 H         1 UNK         0.0719 
     91 H91        26.5288   23.5305   -1.3460 H         1 UNK         0.0809 
     92 H92        24.9061   22.8704   -1.1526 H         1 UNK         0.0809 
     93 H93        25.2889   23.8714   -2.5453 H         1 UNK         0.0809 
     94 H94        25.7480   23.9268    0.9965 H         1 UNK         0.2990 
     95 H95        24.9173   25.9988    3.7940 H         1 UNK         0.0690 
     96 H96        24.2460   23.7732    4.6741 H         1 UNK         0.0788 
     97 H97        24.1301   23.1348    3.0349 H         1 UNK         0.0788 
     98 H98        23.0351   24.4016    3.5681 H         1 UNK         0.0788 
     99 H99        26.5693   23.6499    3.0644 H         1 UNK         0.2993 
    100 H100       29.5851   25.4705    3.1861 H         1 UNK         0.0949 
    101 H101       29.2656   25.2303    5.6422 H         1 UNK         0.0767 
    102 H102       28.5481   23.6398    5.4259 H         1 UNK         0.0767 
    103 H103       30.2469   23.9050    5.0436 H         1 UNK         0.0767 
    104 H104       29.1806   22.6725    3.1625 H         1 UNK         0.3013 
    105 H105       27.8110   29.7302   -2.4859 H         1 UNK         0.3121 
    106 H106       26.1379   31.2958   -0.6356 H         1 UNK         0.0774 
    107 H107       27.2962   31.9632   -3.3958 H         1 UNK         0.0815 
    108 H108       26.1341   32.9338   -2.5032 H         1 UNK         0.0815 
    109 H109       25.6748   31.3417   -3.0815 H         1 UNK         0.0815 
    110 H110       29.5402   30.8727   -1.2497 H         1 UNK         0.2987 
    111 H111       30.3570   33.5781   -0.5544 H         1 UNK         0.0949 
    112 H112       31.9929   31.0024   -0.8513 H         1 UNK         0.0806 
    113 H113       31.7040   32.1899   -2.1202 H         1 UNK         0.0806 
    114 H114       32.6492   32.6237   -0.7052 H         1 UNK         0.0806 
    115 H115       31.0647   34.3319    1.3843 H         1 UNK         0.3010 
    116 H116       30.4008   32.8675    3.8184 H         1 UNK         0.0829 
    117 H117       29.7945   35.2582    3.5591 H         1 UNK         0.0813 
    118 H118       30.9117   35.0502    4.8964 H         1 UNK         0.0813 
    119 H119       31.4924   35.6966    3.3677 H         1 UNK         0.0813 
    120 H120       32.1104   31.2190    3.0458 H         1 UNK         0.3038 
    121 H121       34.8972   31.7530    3.7311 H         1 UNK         0.0769 
    122 H122       33.4329   29.0821    3.3830 H         1 UNK         0.0811 
    123 H123       35.1679   29.3306    3.3224 H         1 UNK         0.0811 
    124 H124       34.1517   29.9874    2.0495 H         1 UNK         0.0811 
    125 H125       36.0200   30.6635    5.4891 H         1 UNK         0.3204 
    126 H126       34.9236   31.0905    8.0309 H         1 UNK         0.0748 
    127 H127       37.0227   29.9914    8.8427 H         1 UNK         0.0771 
    128 H128       37.3558   29.4059    7.2188 H         1 UNK         0.0771 
    129 H129       37.3560   31.1380    7.5571 H         1 UNK         0.0771 
    130 H130       34.8009   28.1652    6.0822 H         1 UNK         0.2980 
    131 H131       33.8695   26.4554    8.2388 H         1 UNK         0.0545 
    132 H132       30.6074   28.3020    6.8472 H         1 UNK         0.3459 
    133 H133       32.1966   28.9827    6.6039 H         1 UNK         0.3459 
    134 H134       33.5135   24.7584    6.4274 H         1 UNK         0.0616 
    135 H135       35.1349   25.3551    6.5572 H         1 UNK         0.0616 
    136 H136       32.4962   24.3765    4.2623 H         1 UNK         0.0634 
    137 H137       31.7591   25.9601    4.4018 H         1 UNK         0.0634 
@<TRIPOS>BOND
     1    1    2 1    
     2    1   72 1    
     3    1   73 1    
     4    1   74 1    
     5    2    3 2    
     6    2    4 am   BACKBONE|DICT|INTERRES
     7    4    5 1    
     8    4   75 1    
     9    5    6 1    
    10    5   35 1    
    11    5   76 1    
    12    6    7 1    
    13    6   77 1    
    14    6   78 1    
    15    7    8 1    
    16    8    9 1    
    17    8   79 1    
    18    8   80 1    
    19    9   10 ar   
    20    9   14 ar   
    21   10   11 ar   
    22   10   81 1    
    23   11   12 ar   
    24   11   71 1    
    25   12   13 ar   
    26   12   82 1    
    27   13   14 ar   
    28   13   15 1    
    29   14   83 1    
    30   15   16 1    
    31   15   84 1    
    32   15   85 1    
    33   16   17 1    
    34   17   18 1    
    35   17   86 1    
    36   17   87 1    
    37   18   19 1    
    38   18   37 1    
    39   18   88 1    
    40   19   20 am   BACKBONE|DICT|INTERRES
    41   19   89 1    
    42   20   21 2    
    43   20   22 1    
    44   22   23 1    
    45   22   24 1    
    46   22   90 1    
    47   23   91 1    
    48   23   92 1    
    49   23   93 1    
    50   24   25 am   BACKBONE|DICT|INTERRES
    51   24   94 1    
    52   25   26 2    
    53   25   27 1    
    54   27   28 1    
    55   27   29 1    
    56   27   95 1    
    57   28   96 1    
    58   28   97 1    
    59   28   98 1    
    60   29   30 am   BACKBONE|DICT|INTERRES
    61   29   99 1    
    62   30   31 2    
    63   30   32 1    
    64   32   33 1    
    65   32   34 1    
    66   32  100 1    
    67   33  101 1    
    68   33  102 1    
    69   33  103 1    
    70   34   35 am   BACKBONE|DICT|INTERRES
    71   34  104 1    
    72   35   36 2    
    73   37   38 2    
    74   37   39 am   BACKBONE|DICT|INTERRES
    75   39   40 1    
    76   39  105 1    
    77   40   41 1    
    78   40   42 1    
    79   40  106 1    
    80   41  107 1    
    81   41  108 1    
    82   41  109 1    
    83   42   43 2    
    84   42   44 am   BACKBONE|DICT|INTERRES
    85   44   45 1    
    86   44  110 1    
    87   45   46 1    
    88   45   47 1    
    89   45  111 1    
    90   46  112 1    
    91   46  113 1    
    92   46  114 1    
    93   47   48 2    
    94   47   49 am   BACKBONE|DICT|INTERRES
    95   49   50 1    
    96   49  115 1    
    97   50   51 1    
    98   50   52 1    
    99   50  116 1    
   100   51  117 1    
   101   51  118 1    
   102   51  119 1    
   103   52   53 2    
   104   52   54 am   BACKBONE|DICT|INTERRES
   105   54   55 1    
   106   54  120 1    
   107   55   56 1    
   108   55   57 1    
   109   55  121 1    
   110   56  122 1    
   111   56  123 1    
   112   56  124 1    
   113   57   58 2    
   114   57   59 am   BACKBONE|DICT|INTERRES
   115   59   60 1    
   116   59  125 1    
   117   60   61 1    
   118   60   62 1    
   119   60  126 1    
   120   61  127 1    
   121   61  128 1    
   122   61  129 1    
   123   62   63 2    
   124   62   64 am   BACKBONE|DICT|INTERRES
   125   64   65 1    
   126   64  130 1    
   127   65   66 1    
   128   65   69 1    
   129   65  131 1    
   130   66   67 am   BACKBONE|DICT|INTERRES
   131   66   68 2    
   132   67  132 1    
   133   67  133 1    
   134   69   70 1    
   135   69  134 1    
   136   69  135 1    
   137   70   71 1    
   138   71  136 1    
   139   71  137 1    
@<TRIPOS>SUBSTRUCTURE
     1 UNK         1 GROUP             0       ****    0 ROOT    
