@<TRIPOS>MOLECULE
3R136
137   139    1
SMALL
USER_CHARGES


@<TRIPOS>ATOM
      1 CA         33.3103   23.0703   -3.9368 C.3       0 UNK        -0.1979 
      2 C          32.7451   24.0252   -2.8956 C.2       0 UNK         0.4864 
      3 O          33.4568   24.9190   -2.4350 O.2       0 UNK        -0.5359 
      4 N          31.4735   23.8453   -2.5273 N.am      1 UNK        -0.4318 
      5 CA         30.7519   24.6544   -1.5478 C.3       1 UNK         0.0824 
      6 C6         31.0962   24.2898   -0.0801 C.3       12 UNK        -0.0944 
      7 S7         30.9915   22.5133    0.3498 S.3       12 UNK        -0.2672 
      8 C8         29.5209   22.4533    1.4332 C.3       12 UNK         0.0333 
      9 C9         29.6687   23.0663    2.8308 C.ar      12 UNK        -0.0807 
     10 C10        30.7449   23.8842    3.2039 C.ar      12 UNK        -0.0894 
     11 C11        30.7760   24.5044    4.4552 C.ar      12 UNK        -0.0804 
     12 C12        29.7472   24.2651    5.3679 C.ar      12 UNK        -0.0824 
     13 C13        28.6779   23.4332    5.0241 C.ar      12 UNK        -0.0762 
     14 C14        28.6473   22.8374    3.7592 C.ar      12 UNK        -0.0782 
     15 C15        27.5298   23.2195    6.0012 C.3       12 UNK         0.0230 
     16 S16        26.0118   24.0826    5.4735 S.3       12 UNK        -0.2608 
     17 C17        26.5915   25.8075    5.3174 C.3       12 UNK        -0.0989 
     18 CA         26.8515   26.1932    3.8331 C.3       5 UNK         0.0716 
     19 N          25.6607   26.1545    2.9792 N.am      5 UNK        -0.4135 
     20 C          24.5230   26.8515    3.1313 C.2       4 UNK         0.5031 
     21 O          24.3114   27.6248    4.0662 O.2       4 UNK        -0.5229 
     22 CA         23.4243   26.6875    2.0576 C.3       4 UNK         0.0329 
     23 CB         23.1560   28.0286    1.3519 C.3       4 UNK        -0.2001 
     24 N          23.7347   25.6834    1.0387 N.am      4 UNK        -0.4303 
     25 C          23.7228   24.3546    1.2140 C.2       3 UNK         0.5044 
     26 O          23.3087   23.8018    2.2325 O.2       3 UNK        -0.5152 
     27 CA         24.3123   23.5002    0.0730 C.3       3 UNK         0.0319 
     28 CB         23.1880   22.8350   -0.7372 C.3       3 UNK        -0.2001 
     29 N          25.1917   24.2425   -0.8428 N.am      3 UNK        -0.4354 
     30 C          26.3434   24.8366   -0.4988 C.2       2 UNK         0.4964 
     31 O          26.8011   24.8401    0.6468 O.2       2 UNK        -0.5047 
     32 CA         27.0426   25.6490   -1.5955 C.3       2 UNK         0.0288 
     33 CB         26.5920   27.1182   -1.5287 C.3       2 UNK        -0.2113 
     34 N          28.4940   25.5875   -1.4383 N.am      2 UNK        -0.4145 
     35 C          29.2484   24.5599   -1.8457 C.2       1 UNK         0.5006 
     36 O          28.8040   23.5753   -2.4458 O.2       1 UNK        -0.5103 
     37 C          27.5803   27.5369    3.6619 C.2       5 UNK         0.5055 
     38 O          27.7053   28.3064    4.6169 O.2       5 UNK        -0.5220 
     39 N          28.0282   27.7953    2.4275 N.am      6 UNK        -0.4450 
     40 CA         28.8044   28.9691    2.0465 C.3       6 UNK         0.0367 
     41 CB         27.8643   30.0690    1.5263 C.3       6 UNK        -0.1929 
     42 C          29.8217   28.5617    0.9766 C.2       6 UNK         0.5070 
     43 O          29.5216   27.6872    0.1577 O.2       6 UNK        -0.5237 
     44 N          30.9924   29.2078    0.9918 N.am      7 UNK        -0.4739 
     45 CA         32.0818   28.9725    0.0417 C.3       7 UNK         0.0276 
     46 CB         32.8015   27.6519    0.3713 C.3       7 UNK        -0.1927 
     47 C          33.1081   30.1147   -0.0159 C.2       7 UNK         0.5013 
     48 O          33.7321   30.2838   -1.0648 O.2       7 UNK        -0.5193 
     49 N          33.3097   30.8536    1.0847 N.am      8 UNK        -0.4253 
     50 CA         34.3714   31.8545    1.2214 C.3       8 UNK         0.0242 
     51 CB         35.7147   31.1480    1.5215 C.3       8 UNK        -0.2000 
     52 C          33.9841   32.8998    2.2809 C.2       8 UNK         0.4948 
     53 O          32.7952   33.1263    2.5097 O.2       8 UNK        -0.5275 
     54 N          34.9874   33.5354    2.9016 N.am      9 UNK        -0.4246 
     55 CA         34.8049   34.4732    4.0125 C.3       9 UNK         0.0261 
     56 CB         36.0393   35.3829    4.1308 C.3       9 UNK        -0.1959 
     57 C          34.5322   33.7505    5.3432 C.2       9 UNK         0.5033 
     58 O          33.6868   34.2068    6.1138 O.2       9 UNK        -0.5390 
     59 N          35.2556   32.6479    5.5925 N.am      10 UNK        -0.4215 
     60 CA         35.1211   31.8228    6.7964 C.3       10 UNK         0.0240 
     61 CB         36.3958   30.9860    7.0028 C.3       10 UNK        -0.1982 
     62 C          33.8720   30.9309    6.7366 C.2       10 UNK         0.4970 
     63 O          33.0457   30.9781    7.6484 O.2       10 UNK        -0.4916 
     64 N          33.7564   30.1494    5.6558 N.am      11 UNK        -0.4279 
     65 CA         32.5689   29.3585    5.3230 C.3       11 UNK         0.1003 
     66 C          31.5422   30.2817    4.6159 C.2       11 UNK         0.5709 
     67 N          30.5465   30.7841    5.3313 N.am      11 UNK        -0.7358 
     68 O          31.6430   30.5270    3.4157 O.2       11 UNK        -0.4999 
     69 C69        32.9629   28.1111    4.4844 C.3       12 UNK        -0.0954 
     70 S70        31.5376   27.0826    3.9924 S.3       12 UNK        -0.2268 
     71 C71        31.8888   25.4865    4.7852 C.3       12 UNK         0.0203 
     72 H72        32.5743   22.3317   -4.2542 H         1 UNK         0.0888 
     73 H73        34.1699   22.5385   -3.5298 H         1 UNK         0.0888 
     74 H74        33.6366   23.6242   -4.8167 H         1 UNK         0.0888 
     75 H75        30.9052   23.1201   -2.9478 H         1 UNK         0.3017 
     76 H76        31.0309   25.6985   -1.7103 H         1 UNK         0.0873 
     77 H77        30.4819   24.8803    0.6023 H         1 UNK         0.0745 
     78 H78        32.1260   24.5864    0.1207 H         1 UNK         0.0745 
     79 H79        28.6912   22.9407    0.9203 H         1 UNK         0.0705 
     80 H80        29.2388   21.4050    1.5414 H         1 UNK         0.0705 
     81 H81        31.5526   24.0874    2.5183 H         1 UNK         0.1334 
     82 H82        29.7635   24.7530    6.3330 H         1 UNK         0.1417 
     83 H83        27.8020   22.2197    3.4860 H         1 UNK         0.1562 
     84 H84        27.8030   23.5575    7.0021 H         1 UNK         0.0748 
     85 H85        27.3200   22.1523    6.0860 H         1 UNK         0.0748 
     86 H86        27.4967   25.9342    5.9130 H         1 UNK         0.0940 
     87 H87        25.8534   26.4679    5.7735 H         1 UNK         0.0940 
     88 H88        27.5303   25.4476    3.4178 H         1 UNK         0.0703 
     89 H89        25.7625   25.5722    2.1546 H         1 UNK         0.3081 
     90 H90        22.5121   26.3811    2.5737 H         1 UNK         0.0719 
     91 H91        22.8641   28.7975    2.0686 H         1 UNK         0.0809 
     92 H92        24.0403   28.3927    0.8271 H         1 UNK         0.0809 
     93 H93        22.3454   27.9424    0.6279 H         1 UNK         0.0809 
     94 H94        24.0742   26.0329    0.1552 H         1 UNK         0.2990 
     95 H95        24.9111   22.7144    0.5385 H         1 UNK         0.0690 
     96 H96        23.5885   22.1546   -1.4890 H         1 UNK         0.0788 
     97 H97        22.5660   23.5724   -1.2464 H         1 UNK         0.0788 
     98 H98        22.5340   22.2488   -0.0897 H         1 UNK         0.0788 
     99 H99        24.8810   24.3081   -1.8021 H         1 UNK         0.2993 
    100 H100       26.7743   25.2430   -2.5736 H         1 UNK         0.0949 
    101 H101       26.7983   27.5607   -0.5533 H         1 UNK         0.0767 
    102 H102       27.0996   27.7223   -2.2810 H         1 UNK         0.0767 
    103 H103       25.5204   27.2106   -1.7098 H         1 UNK         0.0767 
    104 H104       28.9214   26.3435   -0.9031 H         1 UNK         0.3013 
    105 H105       27.9406   27.0934    1.7024 H         1 UNK         0.3121 
    106 H106       29.3454   29.3402    2.9172 H         1 UNK         0.0774 
    107 H107       27.3081   29.7418    0.6472 H         1 UNK         0.0815 
    108 H108       27.1432   30.3657    2.2881 H         1 UNK         0.0815 
    109 H109       28.4262   30.9608    1.2461 H         1 UNK         0.0815 
    110 H110       31.1625   29.8800    1.7356 H         1 UNK         0.2987 
    111 H111       31.6438   28.8888   -0.9556 H         1 UNK         0.0949 
    112 H112       32.1000   26.8255    0.4405 H         1 UNK         0.0806 
    113 H113       33.5288   27.3978   -0.4012 H         1 UNK         0.0806 
    114 H114       33.3356   27.7087    1.3195 H         1 UNK         0.0806 
    115 H115       32.7239   30.7371    1.9087 H         1 UNK         0.3010 
    116 H116       34.4647   32.3987    0.2791 H         1 UNK         0.0829 
    117 H117       36.5519   31.8463    1.5110 H         1 UNK         0.0813 
    118 H118       35.9407   30.3898    0.7715 H         1 UNK         0.0813 
    119 H119       35.7011   30.6529    2.4931 H         1 UNK         0.0813 
    120 H120       35.9365   33.3284    2.6255 H         1 UNK         0.3038 
    121 H121       33.9420   35.1074    3.7960 H         1 UNK         0.0769 
    122 H122       36.1979   35.9557    3.2168 H         1 UNK         0.0811 
    123 H123       36.9483   34.8153    4.3333 H         1 UNK         0.0811 
    124 H124       35.9164   36.1009    4.9430 H         1 UNK         0.0811 
    125 H125       35.9419   32.3590    4.9119 H         1 UNK         0.3204 
    126 H126       35.0151   32.4847    7.6591 H         1 UNK         0.0748 
    127 H127       36.3115   30.3620    7.8937 H         1 UNK         0.0771 
    128 H128       36.5965   30.3241    6.1595 H         1 UNK         0.0771 
    129 H129       37.2685   31.6249    7.1401 H         1 UNK         0.0771 
    130 H130       34.4716   30.1920    4.9472 H         1 UNK         0.2980 
    131 H131       32.1187   28.9913    6.2477 H         1 UNK         0.0545 
    132 H132       30.4729   30.5961    6.3188 H         1 UNK         0.3459 
    133 H133       29.8723   31.3816    4.8813 H         1 UNK         0.3459 
    134 H134       33.6685   27.4976    5.0463 H         1 UNK         0.0616 
    135 H135       33.4860   28.4153    3.5767 H         1 UNK         0.0616 
    136 H136       31.9798   25.6251    5.8636 H         1 UNK         0.0634 
    137 H137       32.8463   25.1024    4.4303 H         1 UNK         0.0634 
@<TRIPOS>BOND
     1    1    2 1    
     2    1   72 1    
     3    1   73 1    
     4    1   74 1    
     5    2    3 2    
     6    2    4 am   BACKBONE|DICT|INTERRES
     7    4    5 1    
     8    4   75 1    
     9    5    6 1    
    10    5   35 1    
    11    5   76 1    
    12    6    7 1    
    13    6   77 1    
    14    6   78 1    
    15    7    8 1    
    16    8    9 1    
    17    8   79 1    
    18    8   80 1    
    19    9   10 ar   
    20    9   14 ar   
    21   10   11 ar   
    22   10   81 1    
    23   11   12 ar   
    24   11   71 1    
    25   12   13 ar   
    26   12   82 1    
    27   13   14 ar   
    28   13   15 1    
    29   14   83 1    
    30   15   16 1    
    31   15   84 1    
    32   15   85 1    
    33   16   17 1    
    34   17   18 1    
    35   17   86 1    
    36   17   87 1    
    37   18   19 1    
    38   18   37 1    
    39   18   88 1    
    40   19   20 am   BACKBONE|DICT|INTERRES
    41   19   89 1    
    42   20   21 2    
    43   20   22 1    
    44   22   23 1    
    45   22   24 1    
    46   22   90 1    
    47   23   91 1    
    48   23   92 1    
    49   23   93 1    
    50   24   25 am   BACKBONE|DICT|INTERRES
    51   24   94 1    
    52   25   26 2    
    53   25   27 1    
    54   27   28 1    
    55   27   29 1    
    56   27   95 1    
    57   28   96 1    
    58   28   97 1    
    59   28   98 1    
    60   29   30 am   BACKBONE|DICT|INTERRES
    61   29   99 1    
    62   30   31 2    
    63   30   32 1    
    64   32   33 1    
    65   32   34 1    
    66   32  100 1    
    67   33  101 1    
    68   33  102 1    
    69   33  103 1    
    70   34   35 am   BACKBONE|DICT|INTERRES
    71   34  104 1    
    72   35   36 2    
    73   37   38 2    
    74   37   39 am   BACKBONE|DICT|INTERRES
    75   39   40 1    
    76   39  105 1    
    77   40   41 1    
    78   40   42 1    
    79   40  106 1    
    80   41  107 1    
    81   41  108 1    
    82   41  109 1    
    83   42   43 2    
    84   42   44 am   BACKBONE|DICT|INTERRES
    85   44   45 1    
    86   44  110 1    
    87   45   46 1    
    88   45   47 1    
    89   45  111 1    
    90   46  112 1    
    91   46  113 1    
    92   46  114 1    
    93   47   48 2    
    94   47   49 am   BACKBONE|DICT|INTERRES
    95   49   50 1    
    96   49  115 1    
    97   50   51 1    
    98   50   52 1    
    99   50  116 1    
   100   51  117 1    
   101   51  118 1    
   102   51  119 1    
   103   52   53 2    
   104   52   54 am   BACKBONE|DICT|INTERRES
   105   54   55 1    
   106   54  120 1    
   107   55   56 1    
   108   55   57 1    
   109   55  121 1    
   110   56  122 1    
   111   56  123 1    
   112   56  124 1    
   113   57   58 2    
   114   57   59 am   BACKBONE|DICT|INTERRES
   115   59   60 1    
   116   59  125 1    
   117   60   61 1    
   118   60   62 1    
   119   60  126 1    
   120   61  127 1    
   121   61  128 1    
   122   61  129 1    
   123   62   63 2    
   124   62   64 am   BACKBONE|DICT|INTERRES
   125   64   65 1    
   126   64  130 1    
   127   65   66 1    
   128   65   69 1    
   129   65  131 1    
   130   66   67 am   BACKBONE|DICT|INTERRES
   131   66   68 2    
   132   67  132 1    
   133   67  133 1    
   134   69   70 1    
   135   69  134 1    
   136   69  135 1    
   137   70   71 1    
   138   71  136 1    
   139   71  137 1    
@<TRIPOS>SUBSTRUCTURE
     1 UNK         1 GROUP             0       ****    0 ROOT    
