@<TRIPOS>MOLECULE
3R136
137   139    1
SMALL
USER_CHARGES


@<TRIPOS>ATOM
      1 CA         32.7292   21.9991    4.9496 C.3       0 UNK        -0.1979 
      2 C          31.7511   21.3390    3.9882 C.2       0 UNK         0.4864 
      3 O          31.0884   20.3681    4.3577 O.2       0 UNK        -0.5359 
      4 N          31.6664   21.8518    2.7546 N.am      1 UNK        -0.4318 
      5 CA         30.7271   21.4207    1.7143 C.3       1 UNK         0.0824 
      6 C6         31.1349   21.9441    0.3082 C.3       12 UNK        -0.0944 
      7 S7         31.6903   23.6858    0.2627 S.3       12 UNK        -0.2672 
      8 C8         30.1497   24.5336   -0.1927 C.3       12 UNK         0.0333 
      9 C9         30.2942   26.0446   -0.1122 C.ar      12 UNK        -0.0807 
     10 C10        30.5316   26.6607    1.1195 C.ar      12 UNK        -0.0894 
     11 C11        30.5837   28.0539    1.2196 C.ar      12 UNK        -0.0804 
     12 C12        30.4424   28.8310    0.0673 C.ar      12 UNK        -0.0824 
     13 C13        30.1920   28.2263   -1.1684 C.ar      12 UNK        -0.0762 
     14 C14        30.1260   26.8330   -1.2532 C.ar      12 UNK        -0.0782 
     15 C15        29.9610   29.0724   -2.4110 C.3       12 UNK         0.0230 
     16 S16        28.1847   29.3828   -2.6843 S.3       12 UNK        -0.2608 
     17 C17        27.8056   30.5468   -1.3304 C.3       12 UNK        -0.0989 
     18 CA         26.8149   30.0030   -0.2638 C.3       5 UNK         0.0716 
     19 N          27.1286   28.6435    0.2011 N.am      5 UNK        -0.4135 
     20 C          26.2340   27.8139    0.7567 C.2       4 UNK         0.5031 
     21 O          25.0275   28.0541    0.8384 O.2       4 UNK        -0.5229 
     22 CA         26.7858   26.5244    1.3854 C.3       4 UNK         0.0329 
     23 CB         26.4218   26.4453    2.8779 C.3       4 UNK        -0.2001 
     24 N          26.3209   25.3061    0.7276 N.am      4 UNK        -0.4303 
     25 C          26.5457   24.9503   -0.5420 C.2       3 UNK         0.5044 
     26 O          27.1200   25.6646   -1.3633 O.2       3 UNK        -0.5152 
     27 CA         26.0968   23.5279   -0.9382 C.3       3 UNK         0.0319 
     28 CB         26.4715   23.1736   -2.3900 C.3       3 UNK        -0.2001 
     29 N          26.6509   22.5003   -0.0468 N.am      3 UNK        -0.4354 
     30 C          26.1888   22.1990    1.1755 C.2       2 UNK         0.4964 
     31 O          25.2414   22.7824    1.7041 O.2       2 UNK        -0.5047 
     32 CA         26.8937   21.0676    1.9427 C.3       2 UNK         0.0288 
     33 CB         26.1951   19.7246    1.6729 C.3       2 UNK        -0.2113 
     34 N          28.3227   20.9389    1.6379 N.am      2 UNK        -0.4145 
     35 C          29.2687   21.7826    2.0760 C.2       1 UNK         0.5006 
     36 O          29.0258   22.8014    2.7283 O.2       1 UNK        -0.5103 
     37 C          26.7411   31.0058    0.9102 C.2       5 UNK         0.5055 
     38 O          26.1740   32.0847    0.7344 O.2       5 UNK        -0.5220 
     39 N          27.3504   30.6545    2.0576 N.am      6 UNK        -0.4450 
     40 CA         27.5402   31.4802    3.2593 C.3       6 UNK         0.0367 
     41 CB         26.1881   31.8304    3.9163 C.3       6 UNK        -0.1929 
     42 C          28.4305   32.7141    3.0015 C.2       6 UNK         0.5070 
     43 O          28.1825   33.7820    3.5636 O.2       6 UNK        -0.5237 
     44 N          29.4502   32.5463    2.1477 N.am      7 UNK        -0.4739 
     45 CA         30.3423   33.6135    1.6874 C.3       7 UNK         0.0276 
     46 CB         29.7106   34.3207    0.4702 C.3       7 UNK        -0.1927 
     47 C          31.7621   33.0897    1.4036 C.2       7 UNK         0.5013 
     48 O          32.4017   33.5467    0.4548 O.2       7 UNK        -0.5193 
     49 N          32.2384   32.1416    2.2200 N.am      8 UNK        -0.4253 
     50 CA         33.5861   31.5745    2.1614 C.3       8 UNK         0.0242 
     51 CB         33.6987   30.5391    1.0245 C.3       8 UNK        -0.2000 
     52 C          33.9156   30.9430    3.5183 C.2       8 UNK         0.4948 
     53 O          32.9990   30.6315    4.2835 O.2       8 UNK        -0.5275 
     54 N          35.2146   30.7372    3.7783 N.am      9 UNK        -0.4246 
     55 CA         35.7662   30.2284    5.0426 C.3       9 UNK         0.0261 
     56 CB         37.3009   30.2069    4.9559 C.3       9 UNK        -0.1959 
     57 C          35.2364   28.8503    5.4798 C.2       9 UNK         0.5033 
     58 O          35.1522   28.5948    6.6820 O.2       9 UNK        -0.5390 
     59 N          34.8426   28.0092    4.5117 N.am      10 UNK        -0.4215 
     60 CA         34.2017   26.7055    4.7269 C.3       10 UNK         0.0240 
     61 CB         34.0119   26.0084    3.3680 C.3       10 UNK        -0.1982 
     62 C          32.8589   26.7765    5.4829 C.2       10 UNK         0.4970 
     63 O          32.4510   25.7744    6.0707 O.2       10 UNK        -0.4916 
     64 N          32.2100   27.9465    5.4560 N.am      11 UNK        -0.4279 
     65 CA         30.9569   28.2491    6.1555 C.3       11 UNK         0.1003 
     66 C          31.1839   28.8859    7.5582 C.2       11 UNK         0.5709 
     67 N          32.4148   29.0881    8.0183 N.am      11 UNK        -0.7358 
     68 O          30.2197   29.1868    8.2580 O.2       11 UNK        -0.4999 
     69 C69        30.0276   29.1197    5.2669 C.3       12 UNK        -0.0954 
     70 S70        29.4898   28.2515    3.7550 S.3       12 UNK        -0.2268 
     71 C71        30.7923   28.7142    2.5719 C.3       12 UNK         0.0203 
     72 H72        32.1863   22.5201    5.7379 H         1 UNK         0.0888 
     73 H73        33.3682   21.2479    5.4128 H         1 UNK         0.0888 
     74 H74        33.3703   22.7216    4.4455 H         1 UNK         0.0888 
     75 H75        32.2119   22.6667    2.5115 H         1 UNK         0.3017 
     76 H76        30.7796   20.3300    1.6802 H         1 UNK         0.0873 
     77 H77        31.9729   21.3457   -0.0527 H         1 UNK         0.0745 
     78 H78        30.3413   21.7877   -0.4252 H         1 UNK         0.0745 
     79 H79        29.8501   24.2217   -1.1945 H         1 UNK         0.0705 
     80 H80        29.3480   24.2299    0.4795 H         1 UNK         0.0705 
     81 H81        30.6427   26.0533    2.0081 H         1 UNK         0.1334 
     82 H82        30.5136   29.9071    0.1341 H         1 UNK         0.1417 
     83 H83        29.9101   26.3647   -2.2042 H         1 UNK         0.1562 
     84 H84        30.3665   28.5603   -3.2850 H         1 UNK         0.0748 
     85 H85        30.4980   30.0198   -2.3405 H         1 UNK         0.0748 
     86 H86        27.3823   31.4424   -1.7901 H         1 UNK         0.0940 
     87 H87        28.7356   30.8841   -0.8732 H         1 UNK         0.0940 
     88 H88        25.8251   29.9765   -0.7250 H         1 UNK         0.0703 
     89 H89        28.0838   28.3327    0.0797 H         1 UNK         0.3081 
     90 H90        27.8714   26.5405    1.3115 H         1 UNK         0.0719 
     91 H91        25.3522   26.2894    3.0242 H         1 UNK         0.0809 
     92 H92        26.9515   25.6291    3.3703 H         1 UNK         0.0809 
     93 H93        26.6863   27.3650    3.4003 H         1 UNK         0.0809 
     94 H94        25.8308   24.6345    1.3097 H         1 UNK         0.2990 
     95 H95        25.0074   23.5056   -0.8639 H         1 UNK         0.0690 
     96 H96        26.1004   22.1866   -2.6667 H         1 UNK         0.0788 
     97 H97        27.5516   23.1824   -2.5422 H         1 UNK         0.0788 
     98 H98        26.0377   23.8879   -3.0912 H         1 UNK         0.0788 
     99 H99        27.4437   21.9830   -0.3958 H         1 UNK         0.2993 
    100 H100       26.7946   21.2916    3.0076 H         1 UNK         0.0949 
    101 H101       26.6218   18.9262    2.2805 H         1 UNK         0.0767 
    102 H102       25.1331   19.7813    1.9168 H         1 UNK         0.0767 
    103 H103       26.2734   19.4297    0.6256 H         1 UNK         0.0767 
    104 H104       28.5992   20.1228    1.1103 H         1 UNK         0.3013 
    105 H105       27.7685   29.7360    2.0987 H         1 UNK         0.3121 
    106 H106       28.0887   30.8657    3.9722 H         1 UNK         0.0774 
    107 H107       26.3378   32.3131    4.8828 H         1 UNK         0.0815 
    108 H108       25.6014   32.5137    3.3019 H         1 UNK         0.0815 
    109 H109       25.5892   30.9367    4.0913 H         1 UNK         0.0815 
    110 H110       29.5915   31.6372    1.7348 H         1 UNK         0.2987 
    111 H111       30.4578   34.3514    2.4846 H         1 UNK         0.0949 
    112 H112       29.5978   33.6400   -0.3744 H         1 UNK         0.0806 
    113 H113       28.7254   34.7212    0.7099 H         1 UNK         0.0806 
    114 H114       30.3240   35.1591    0.1376 H         1 UNK         0.0806 
    115 H115       31.7037   31.8535    3.0307 H         1 UNK         0.3010 
    116 H116       34.2960   32.3857    1.9846 H         1 UNK         0.0829 
    117 H117       33.4269   30.9690    0.0605 H         1 UNK         0.0813 
    118 H118       34.7207   30.1705    0.9303 H         1 UNK         0.0813 
    119 H119       33.0603   29.6740    1.1941 H         1 UNK         0.0813 
    120 H120       35.8907   31.0106    3.0789 H         1 UNK         0.3038 
    121 H121       35.4807   30.9375    5.8225 H         1 UNK         0.0769 
    122 H122       37.6521   29.5449    4.1634 H         1 UNK         0.0811 
    123 H123       37.7402   29.8565    5.8912 H         1 UNK         0.0811 
    124 H124       37.7031   31.2023    4.7667 H         1 UNK         0.0811 
    125 H125       34.9575   28.3069    3.5542 H         1 UNK         0.3204 
    126 H126       34.8795   26.1008    5.3330 H         1 UNK         0.0748 
    127 H127       34.9675   25.8397    2.8712 H         1 UNK         0.0771 
    128 H128       33.5370   25.0342    3.4893 H         1 UNK         0.0771 
    129 H129       33.3823   26.5917    2.6952 H         1 UNK         0.0771 
    130 H130       32.6338   28.7379    4.9845 H         1 UNK         0.2980 
    131 H131       30.4310   27.3128    6.3501 H         1 UNK         0.0545 
    132 H132       32.5338   29.4945    8.9323 H         1 UNK         0.3459 
    133 H133       33.2290   28.8349    7.4716 H         1 UNK         0.3459 
    134 H134       30.5061   30.0633    5.0014 H         1 UNK         0.0616 
    135 H135       29.1207   29.3852    5.8129 H         1 UNK         0.0616 
    136 H136       30.8048   29.7988    2.4785 H         1 UNK         0.0634 
    137 H137       31.7701   28.4208    2.9468 H         1 UNK         0.0634 
@<TRIPOS>BOND
     1    1    2 1    
     2    1   72 1    
     3    1   73 1    
     4    1   74 1    
     5    2    3 2    
     6    2    4 am   BACKBONE|DICT|INTERRES
     7    4    5 1    
     8    4   75 1    
     9    5    6 1    
    10    5   35 1    
    11    5   76 1    
    12    6    7 1    
    13    6   77 1    
    14    6   78 1    
    15    7    8 1    
    16    8    9 1    
    17    8   79 1    
    18    8   80 1    
    19    9   10 ar   
    20    9   14 ar   
    21   10   11 ar   
    22   10   81 1    
    23   11   12 ar   
    24   11   71 1    
    25   12   13 ar   
    26   12   82 1    
    27   13   14 ar   
    28   13   15 1    
    29   14   83 1    
    30   15   16 1    
    31   15   84 1    
    32   15   85 1    
    33   16   17 1    
    34   17   18 1    
    35   17   86 1    
    36   17   87 1    
    37   18   19 1    
    38   18   37 1    
    39   18   88 1    
    40   19   20 am   BACKBONE|DICT|INTERRES
    41   19   89 1    
    42   20   21 2    
    43   20   22 1    
    44   22   23 1    
    45   22   24 1    
    46   22   90 1    
    47   23   91 1    
    48   23   92 1    
    49   23   93 1    
    50   24   25 am   BACKBONE|DICT|INTERRES
    51   24   94 1    
    52   25   26 2    
    53   25   27 1    
    54   27   28 1    
    55   27   29 1    
    56   27   95 1    
    57   28   96 1    
    58   28   97 1    
    59   28   98 1    
    60   29   30 am   BACKBONE|DICT|INTERRES
    61   29   99 1    
    62   30   31 2    
    63   30   32 1    
    64   32   33 1    
    65   32   34 1    
    66   32  100 1    
    67   33  101 1    
    68   33  102 1    
    69   33  103 1    
    70   34   35 am   BACKBONE|DICT|INTERRES
    71   34  104 1    
    72   35   36 2    
    73   37   38 2    
    74   37   39 am   BACKBONE|DICT|INTERRES
    75   39   40 1    
    76   39  105 1    
    77   40   41 1    
    78   40   42 1    
    79   40  106 1    
    80   41  107 1    
    81   41  108 1    
    82   41  109 1    
    83   42   43 2    
    84   42   44 am   BACKBONE|DICT|INTERRES
    85   44   45 1    
    86   44  110 1    
    87   45   46 1    
    88   45   47 1    
    89   45  111 1    
    90   46  112 1    
    91   46  113 1    
    92   46  114 1    
    93   47   48 2    
    94   47   49 am   BACKBONE|DICT|INTERRES
    95   49   50 1    
    96   49  115 1    
    97   50   51 1    
    98   50   52 1    
    99   50  116 1    
   100   51  117 1    
   101   51  118 1    
   102   51  119 1    
   103   52   53 2    
   104   52   54 am   BACKBONE|DICT|INTERRES
   105   54   55 1    
   106   54  120 1    
   107   55   56 1    
   108   55   57 1    
   109   55  121 1    
   110   56  122 1    
   111   56  123 1    
   112   56  124 1    
   113   57   58 2    
   114   57   59 am   BACKBONE|DICT|INTERRES
   115   59   60 1    
   116   59  125 1    
   117   60   61 1    
   118   60   62 1    
   119   60  126 1    
   120   61  127 1    
   121   61  128 1    
   122   61  129 1    
   123   62   63 2    
   124   62   64 am   BACKBONE|DICT|INTERRES
   125   64   65 1    
   126   64  130 1    
   127   65   66 1    
   128   65   69 1    
   129   65  131 1    
   130   66   67 am   BACKBONE|DICT|INTERRES
   131   66   68 2    
   132   67  132 1    
   133   67  133 1    
   134   69   70 1    
   135   69  134 1    
   136   69  135 1    
   137   70   71 1    
   138   71  136 1    
   139   71  137 1    
@<TRIPOS>SUBSTRUCTURE
     1 UNK         1 GROUP             0       ****    0 ROOT    
