@<TRIPOS>MOLECULE
3R136
137   139    1
SMALL
USER_CHARGES


@<TRIPOS>ATOM
      1 CA         31.5778   21.8398    4.0207 C.3       0 UNK        -0.1979 
      2 C          30.5706   21.4183    2.9618 C.2       0 UNK         0.4864 
      3 O          29.9458   20.3640    3.0918 O.2       0 UNK        -0.5359 
      4 N          30.3905   22.2397    1.9194 N.am      1 UNK        -0.4318 
      5 CA         29.4349   22.0257    0.8294 C.3       1 UNK         0.0824 
      6 C6         29.8621   22.7762   -0.4559 C.3       12 UNK        -0.0944 
      7 S7         31.2931   22.0069   -1.3021 S.3       12 UNK        -0.2672 
      8 C8         32.7745   22.6350   -0.4287 C.3       12 UNK         0.0333 
      9 C9         32.6774   24.1060   -0.0499 C.ar      12 UNK        -0.0807 
     10 C10        32.7716   24.4891    1.2909 C.ar      12 UNK        -0.0894 
     11 C11        32.5639   25.8184    1.6656 C.ar      12 UNK        -0.0804 
     12 C12        32.3010   26.7766    0.6822 C.ar      12 UNK        -0.0824 
     13 C13        32.2092   26.4052   -0.6627 C.ar      12 UNK        -0.0762 
     14 C14        32.4290   25.0744   -1.0268 C.ar      12 UNK        -0.0782 
     15 C15        31.7760   27.4224   -1.7088 C.3       12 UNK         0.0230 
     16 S16        30.1515   27.0045   -2.4352 S.3       12 UNK        -0.2608 
     17 C17        29.0846   26.8358   -0.9573 C.3       12 UNK        -0.0989 
     18 CA         28.1075   28.0152   -0.7336 C.3       5 UNK         0.0716 
     19 N          27.2433   27.7779    0.4208 N.am      5 UNK        -0.4135 
     20 C          26.1686   26.9842    0.4153 C.2       4 UNK         0.5031 
     21 O          25.7790   26.3659   -0.5773 O.2       4 UNK        -0.5229 
     22 CA         25.4289   26.8325    1.7492 C.3       4 UNK         0.0329 
     23 CB         23.9975   26.2832    1.5829 C.3       4 UNK        -0.2001 
     24 N          26.1978   25.9392    2.6110 N.am      4 UNK        -0.4303 
     25 C          26.2104   25.9916    3.9505 C.2       3 UNK         0.5044 
     26 O          25.6040   26.8406    4.6062 O.2       3 UNK        -0.5152 
     27 CA         27.0268   24.9017    4.6807 C.3       3 UNK         0.0319 
     28 CB         26.6504   24.7569    6.1699 C.3       3 UNK        -0.2001 
     29 N          26.9783   23.6032    4.0002 N.am      3 UNK        -0.4354 
     30 C          25.8875   22.8880    3.6808 C.2       2 UNK         0.4964 
     31 O          24.7520   23.1609    4.0726 O.2       2 UNK        -0.5047 
     32 CA         26.0870   21.6721    2.7497 C.3       2 UNK         0.0288 
     33 CB         24.9943   21.6091    1.6608 C.3       2 UNK        -0.2113 
     34 N          27.4206   21.5687    2.1344 N.am      2 UNK        -0.4145 
     35 C          28.0285   22.4372    1.3099 C.2       1 UNK         0.5006 
     36 O          27.5599   23.5350    0.9978 O.2       1 UNK        -0.5103 
     37 C          28.8240   29.3534   -0.5006 C.2       5 UNK         0.5055 
     38 O          29.3434   29.5729    0.5938 O.2       5 UNK        -0.5220 
     39 N          28.8314   30.2205   -1.5223 N.am      6 UNK        -0.4450 
     40 CA         29.4169   31.5620   -1.4830 C.3       6 UNK         0.0367 
     41 CB         29.0603   32.3123   -2.7777 C.3       6 UNK        -0.1929 
     42 C          30.9394   31.5234   -1.2663 C.2       6 UNK         0.5070 
     43 O          31.6711   31.0627   -2.1446 O.2       6 UNK        -0.5237 
     44 N          31.3771   32.0112   -0.1038 N.am      7 UNK        -0.4739 
     45 CA         32.7611   32.0795    0.3518 C.3       7 UNK         0.0276 
     46 CB         33.2624   30.6692    0.7310 C.3       7 UNK        -0.1927 
     47 C          32.8155   33.0204    1.5633 C.2       7 UNK         0.5013 
     48 O          31.7678   33.3794    2.1085 O.2       7 UNK        -0.5193 
     49 N          34.0359   33.3723    1.9890 N.am      8 UNK        -0.4253 
     50 CA         34.2949   34.0974    3.2407 C.3       8 UNK         0.0242 
     51 CB         35.6902   34.7406    3.1678 C.3       8 UNK        -0.2000 
     52 C          34.1775   33.2006    4.4919 C.2       8 UNK         0.4948 
     53 O          34.0992   33.7220    5.6054 O.2       8 UNK        -0.5275 
     54 N          34.1906   31.8768    4.2867 N.am      9 UNK        -0.4246 
     55 CA         34.0153   30.8385    5.3005 C.3       9 UNK         0.0261 
     56 CB         34.4927   29.5049    4.6972 C.3       9 UNK        -0.1959 
     57 C          32.5581   30.7288    5.7890 C.2       9 UNK         0.5033 
     58 O          31.6501   31.3245    5.2031 O.2       9 UNK        -0.5390 
     59 N          32.3584   29.9136    6.8346 N.am      10 UNK        -0.4215 
     60 CA         31.0772   29.6508    7.5063 C.3       10 UNK         0.0240 
     61 CB         31.3231   28.6984    8.6888 C.3       10 UNK        -0.1982 
     62 C          29.9434   29.1083    6.6110 C.2       10 UNK         0.4970 
     63 O          28.7828   29.1857    7.0157 O.2       10 UNK        -0.4916 
     64 N          30.2815   28.5872    5.4242 N.am      11 UNK        -0.4279 
     65 CA         29.3245   28.1939    4.3788 C.3       11 UNK         0.1003 
     66 C          28.5450   29.3818    3.7388 C.2       11 UNK         0.5709 
     67 N          28.9643   30.6305    3.9166 N.am      11 UNK        -0.7358 
     68 O          27.5440   29.1587    3.0621 O.2       11 UNK        -0.4999 
     69 C69        29.9854   27.3335    3.2692 C.3       12 UNK        -0.0954 
     70 S70        30.9426   25.9128    3.9016 S.3       12 UNK        -0.2268 
     71 C71        32.5731   26.1993    3.1382 C.3       12 UNK         0.0203 
     72 H72        31.7940   22.9064    3.9744 H         1 UNK         0.0888 
     73 H73        32.5106   21.2918    3.8913 H         1 UNK         0.0888 
     74 H74        31.1903   21.6231    5.0159 H         1 UNK         0.0888 
     75 H75        30.9034   23.1085    1.8713 H         1 UNK         0.3017 
     76 H76        29.3958   20.9600    0.5916 H         1 UNK         0.0873 
     77 H77        30.0442   23.8323   -0.2541 H         1 UNK         0.0745 
     78 H78        29.0461   22.7622   -1.1812 H         1 UNK         0.0745 
     79 H79        32.9374   22.0181    0.4562 H         1 UNK         0.0705 
     80 H80        33.6475   22.4882   -1.0658 H         1 UNK         0.0705 
     81 H81        32.9754   23.7483    2.0510 H         1 UNK         0.1334 
     82 H82        32.1176   27.8034    0.9650 H         1 UNK         0.1417 
     83 H83        32.3303   24.7788   -2.0627 H         1 UNK         0.1562 
     84 H84        32.5229   27.4692   -2.5022 H         1 UNK         0.0748 
     85 H85        31.7204   28.4226   -1.2778 H         1 UNK         0.0748 
     86 H86        29.6783   26.6740   -0.0585 H         1 UNK         0.0940 
     87 H87        28.5158   25.9136   -1.0871 H         1 UNK         0.0940 
     88 H88        27.4745   28.1175   -1.6181 H         1 UNK         0.0703 
     89 H89        27.4908   28.2924    1.2644 H         1 UNK         0.3081 
     90 H90        25.3647   27.8240    2.2024 H         1 UNK         0.0719 
     91 H91        23.9998   25.2704    1.1774 H         1 UNK         0.0809 
     92 H92        23.4701   26.2577    2.5366 H         1 UNK         0.0809 
     93 H93        23.4147   26.9084    0.9056 H         1 UNK         0.0809 
     94 H94        26.7161   25.2069    2.1351 H         1 UNK         0.2990 
     95 H95        28.0673   25.2230    4.6374 H         1 UNK         0.0690 
     96 H96        27.2541   23.9927    6.6593 H         1 UNK         0.0788 
     97 H97        25.6010   24.4895    6.2977 H         1 UNK         0.0788 
     98 H98        26.8159   25.6918    6.7070 H         1 UNK         0.0788 
     99 H99        27.8569   23.2815    3.6212 H         1 UNK         0.2993 
    100 H100       25.9765   20.7912    3.3840 H         1 UNK         0.0949 
    101 H101       23.9997   21.5395    2.1031 H         1 UNK         0.0767 
    102 H102       25.0053   22.4962    1.0262 H         1 UNK         0.0767 
    103 H103       25.1220   20.7364    1.0202 H         1 UNK         0.0767 
    104 H104       27.9628   20.7552    2.4090 H         1 UNK         0.3013 
    105 H105       28.4257   29.9356   -2.4019 H         1 UNK         0.3121 
    106 H106       28.9570   32.0976   -0.6495 H         1 UNK         0.0774 
    107 H107       27.9812   32.4116   -2.8964 H         1 UNK         0.0815 
    108 H108       29.4512   31.8046   -3.6605 H         1 UNK         0.0815 
    109 H109       29.4783   33.3198   -2.7707 H         1 UNK         0.0815 
    110 H110       30.7176   32.3858    0.5693 H         1 UNK         0.2987 
    111 H111       33.3796   32.4974   -0.4455 H         1 UNK         0.0949 
    112 H112       32.6496   30.2267    1.5179 H         1 UNK         0.0806 
    113 H113       33.2420   29.9950   -0.1248 H         1 UNK         0.0806 
    114 H114       34.2928   30.6914    1.0866 H         1 UNK         0.0806 
    115 H115       34.8455   33.0633    1.4690 H         1 UNK         0.3010 
    116 H116       33.5560   34.8954    3.3426 H         1 UNK         0.0829 
    117 H117       35.7685   35.4253    2.3231 H         1 UNK         0.0813 
    118 H118       35.9015   35.3171    4.0696 H         1 UNK         0.0813 
    119 H119       36.4770   33.9916    3.0691 H         1 UNK         0.0813 
    120 H120       34.2319   31.5600    3.3314 H         1 UNK         0.3038 
    121 H121       34.6424   31.0860    6.1597 H         1 UNK         0.0769 
    122 H122       33.9190   29.2415    3.8086 H         1 UNK         0.0811 
    123 H123       34.4000   28.6806    5.4053 H         1 UNK         0.0811 
    124 H124       35.5430   29.5570    4.4091 H         1 UNK         0.0811 
    125 H125       33.1645   29.4575    7.2381 H         1 UNK         0.3204 
    126 H126       30.7273   30.6050    7.9055 H         1 UNK         0.0748 
    127 H127       32.0355   29.1194    9.3987 H         1 UNK         0.0771 
    128 H128       30.3998   28.5076    9.2380 H         1 UNK         0.0771 
    129 H129       31.7082   27.7337    8.3555 H         1 UNK         0.0771 
    130 H130       31.2557   28.5563    5.1701 H         1 UNK         0.2980 
    131 H131       28.5724   27.5754    4.8692 H         1 UNK         0.0545 
    132 H132       28.4551   31.3820    3.4820 H         1 UNK         0.3459 
    133 H133       29.8203   30.8266    4.4243 H         1 UNK         0.3459 
    134 H134       29.2274   26.9400    2.5897 H         1 UNK         0.0616 
    135 H135       30.6314   27.9669    2.6618 H         1 UNK         0.0616 
    136 H136       32.8641   27.2414    3.2657 H         1 UNK         0.0634 
    137 H137       33.3195   25.6061    3.6684 H         1 UNK         0.0634 
@<TRIPOS>BOND
     1    1    2 1    
     2    1   72 1    
     3    1   73 1    
     4    1   74 1    
     5    2    3 2    
     6    2    4 am   BACKBONE|DICT|INTERRES
     7    4    5 1    
     8    4   75 1    
     9    5    6 1    
    10    5   35 1    
    11    5   76 1    
    12    6    7 1    
    13    6   77 1    
    14    6   78 1    
    15    7    8 1    
    16    8    9 1    
    17    8   79 1    
    18    8   80 1    
    19    9   10 ar   
    20    9   14 ar   
    21   10   11 ar   
    22   10   81 1    
    23   11   12 ar   
    24   11   71 1    
    25   12   13 ar   
    26   12   82 1    
    27   13   14 ar   
    28   13   15 1    
    29   14   83 1    
    30   15   16 1    
    31   15   84 1    
    32   15   85 1    
    33   16   17 1    
    34   17   18 1    
    35   17   86 1    
    36   17   87 1    
    37   18   19 1    
    38   18   37 1    
    39   18   88 1    
    40   19   20 am   BACKBONE|DICT|INTERRES
    41   19   89 1    
    42   20   21 2    
    43   20   22 1    
    44   22   23 1    
    45   22   24 1    
    46   22   90 1    
    47   23   91 1    
    48   23   92 1    
    49   23   93 1    
    50   24   25 am   BACKBONE|DICT|INTERRES
    51   24   94 1    
    52   25   26 2    
    53   25   27 1    
    54   27   28 1    
    55   27   29 1    
    56   27   95 1    
    57   28   96 1    
    58   28   97 1    
    59   28   98 1    
    60   29   30 am   BACKBONE|DICT|INTERRES
    61   29   99 1    
    62   30   31 2    
    63   30   32 1    
    64   32   33 1    
    65   32   34 1    
    66   32  100 1    
    67   33  101 1    
    68   33  102 1    
    69   33  103 1    
    70   34   35 am   BACKBONE|DICT|INTERRES
    71   34  104 1    
    72   35   36 2    
    73   37   38 2    
    74   37   39 am   BACKBONE|DICT|INTERRES
    75   39   40 1    
    76   39  105 1    
    77   40   41 1    
    78   40   42 1    
    79   40  106 1    
    80   41  107 1    
    81   41  108 1    
    82   41  109 1    
    83   42   43 2    
    84   42   44 am   BACKBONE|DICT|INTERRES
    85   44   45 1    
    86   44  110 1    
    87   45   46 1    
    88   45   47 1    
    89   45  111 1    
    90   46  112 1    
    91   46  113 1    
    92   46  114 1    
    93   47   48 2    
    94   47   49 am   BACKBONE|DICT|INTERRES
    95   49   50 1    
    96   49  115 1    
    97   50   51 1    
    98   50   52 1    
    99   50  116 1    
   100   51  117 1    
   101   51  118 1    
   102   51  119 1    
   103   52   53 2    
   104   52   54 am   BACKBONE|DICT|INTERRES
   105   54   55 1    
   106   54  120 1    
   107   55   56 1    
   108   55   57 1    
   109   55  121 1    
   110   56  122 1    
   111   56  123 1    
   112   56  124 1    
   113   57   58 2    
   114   57   59 am   BACKBONE|DICT|INTERRES
   115   59   60 1    
   116   59  125 1    
   117   60   61 1    
   118   60   62 1    
   119   60  126 1    
   120   61  127 1    
   121   61  128 1    
   122   61  129 1    
   123   62   63 2    
   124   62   64 am   BACKBONE|DICT|INTERRES
   125   64   65 1    
   126   64  130 1    
   127   65   66 1    
   128   65   69 1    
   129   65  131 1    
   130   66   67 am   BACKBONE|DICT|INTERRES
   131   66   68 2    
   132   67  132 1    
   133   67  133 1    
   134   69   70 1    
   135   69  134 1    
   136   69  135 1    
   137   70   71 1    
   138   71  136 1    
   139   71  137 1    
@<TRIPOS>SUBSTRUCTURE
     1 UNK         1 GROUP             0       ****    0 ROOT    
