@<TRIPOS>MOLECULE
3R136
137   139    1
SMALL
USER_CHARGES


@<TRIPOS>ATOM
      1 CA         32.2127   25.4027   -4.0325 C.3       0 UNK        -0.1979 
      2 C          31.0447   25.3681   -3.0590 C.2       0 UNK         0.4864 
      3 O          30.0357   26.0380   -3.2857 O.2       0 UNK        -0.5359 
      4 N          31.1596   24.5818   -1.9805 N.am      1 UNK        -0.4318 
      5 CA         30.1674   24.4500   -0.9052 C.3       1 UNK         0.0824 
      6 C6         30.8129   23.9771    0.4237 C.3       12 UNK        -0.0944 
      7 S7         32.0542   25.1591    1.0442 S.3       12 UNK        -0.2672 
      8 C8         31.0062   26.3307    1.9624 C.3       12 UNK         0.0333 
      9 C9         30.6212   25.8159    3.3399 C.ar      12 UNK        -0.0807 
     10 C10        31.4877   26.0027    4.4185 C.ar      12 UNK        -0.0894 
     11 C11        31.1272   25.5811    5.7014 C.ar      12 UNK        -0.0804 
     12 C12        29.8701   25.0039    5.9072 C.ar      12 UNK        -0.0824 
     13 C13        28.9828   24.8280    4.8395 C.ar      12 UNK        -0.0762 
     14 C14        29.3831   25.2027    3.5511 C.ar      12 UNK        -0.0782 
     15 C15        27.6019   24.2281    5.0989 C.3       12 UNK         0.0230 
     16 S16        26.2517   25.0089    4.1450 S.3       12 UNK        -0.2608 
     17 C17        26.2708   26.7421    4.7358 C.3       12 UNK        -0.0989 
     18 CA         27.0126   27.6965    3.7644 C.3       5 UNK         0.0716 
     19 N          26.5484   27.5659    2.3837 N.am      5 UNK        -0.4135 
     20 C          27.1645   28.0589    1.3049 C.2       4 UNK         0.5031 
     21 O          28.1867   28.7469    1.3680 O.2       4 UNK        -0.5229 
     22 CA         26.5523   27.7106   -0.0680 C.3       4 UNK         0.0329 
     23 CB         27.5021   28.0460   -1.2345 C.3       4 UNK        -0.2001 
     24 N          26.1703   26.2994   -0.1790 N.am      4 UNK        -0.4303 
     25 C          25.0747   25.7211    0.3334 C.2       3 UNK         0.5044 
     26 O          24.2556   26.3323    1.0208 O.2       3 UNK        -0.5152 
     27 CA         24.8839   24.2081    0.0865 C.3       3 UNK         0.0319 
     28 CB         23.4187   23.8497   -0.2388 C.3       3 UNK        -0.2001 
     29 N          25.8099   23.6384   -0.9054 N.am      3 UNK        -0.4354 
     30 C          25.8774   23.8979   -2.2205 C.2       2 UNK         0.4964 
     31 O          25.0890   24.6282   -2.8218 O.2       2 UNK        -0.5047 
     32 CA         27.0941   23.3038   -2.9555 C.3       2 UNK         0.0288 
     33 CB         27.0275   23.5064   -4.4809 C.3       2 UNK        -0.2113 
     34 N          28.3311   23.9083   -2.4534 N.am      2 UNK        -0.4145 
     35 C          28.9580   23.5785   -1.3169 C.2       1 UNK         0.5006 
     36 O          28.5814   22.6533   -0.5939 O.2       1 UNK        -0.5103 
     37 C          26.9460   29.1673    4.2104 C.2       5 UNK         0.5055 
     38 O          25.8548   29.7373    4.2627 O.2       5 UNK        -0.5220 
     39 N          28.1271   29.7517    4.4606 N.am      6 UNK        -0.4450 
     40 CA         28.3962   31.1672    4.7512 C.3       6 UNK         0.0367 
     41 CB         27.6436   31.6424    6.0126 C.3       6 UNK        -0.1929 
     42 C          28.1903   32.1203    3.5529 C.2       6 UNK         0.5070 
     43 O          28.3158   33.3326    3.7327 O.2       6 UNK        -0.5237 
     44 N          27.9136   31.5807    2.3575 N.am      7 UNK        -0.4739 
     45 CA         27.8777   32.3245    1.0954 C.3       7 UNK         0.0276 
     46 CB         26.6800   31.8617    0.2503 C.3       7 UNK        -0.1927 
     47 C          29.2013   32.1435    0.3366 C.2       7 UNK         0.5013 
     48 O          29.7360   33.1209   -0.1892 O.2       7 UNK        -0.5193 
     49 N          29.7221   30.9088    0.3286 N.am      8 UNK        -0.4253 
     50 CA         31.0838   30.5711   -0.0851 C.3       8 UNK         0.0242 
     51 CB         31.0815   29.1390   -0.6524 C.3       8 UNK        -0.2000 
     52 C          32.0620   30.7350    1.0975 C.2       8 UNK         0.4948 
     53 O          31.6616   31.1812    2.1770 O.2       8 UNK        -0.5275 
     54 N          33.3385   30.3959    0.8651 N.am      9 UNK        -0.4246 
     55 CA         34.4374   30.4995    1.8327 C.3       9 UNK         0.0261 
     56 CB         35.7421   30.0319    1.1669 C.3       9 UNK        -0.1959 
     57 C          34.1849   29.7079    3.1301 C.2       9 UNK         0.5033 
     58 O          33.7037   28.5742    3.0727 O.2       9 UNK        -0.5390 
     59 N          34.5245   30.3249    4.2685 N.am      10 UNK        -0.4215 
     60 CA         34.3433   29.7686    5.6098 C.3       10 UNK         0.0240 
     61 CB         34.5139   30.8965    6.6420 C.3       10 UNK        -0.1982 
     62 C          35.3107   28.6114    5.9120 C.2       10 UNK         0.4970 
     63 O          36.3967   28.5379    5.3321 O.2       10 UNK        -0.4916 
     64 N          34.8997   27.7586    6.8556 N.am      11 UNK        -0.4279 
     65 CA         35.6557   26.5934    7.3421 C.3       11 UNK         0.1003 
     66 C          36.7886   26.9393    8.3533 C.2       11 UNK         0.5709 
     67 N          36.9111   28.1739    8.8273 N.am      11 UNK        -0.7358 
     68 O          37.5814   26.0696    8.7070 O.2       11 UNK        -0.4999 
     69 C69        34.7011   25.5087    7.9130 C.3       12 UNK        -0.0954 
     70 S70        33.6103   24.8016    6.6340 S.3       12 UNK        -0.2268 
     71 C71        32.0905   25.7789    6.8619 C.3       12 UNK         0.0203 
     72 H72        32.5916   26.4201   -4.1253 H         1 UNK         0.0888 
     73 H73        33.0333   24.7633   -3.7076 H         1 UNK         0.0888 
     74 H74        31.8897   25.0674   -5.0177 H         1 UNK         0.0888 
     75 H75        32.0043   24.0424   -1.8533 H         1 UNK         0.3017 
     76 H76        29.7530   25.4429   -0.7205 H         1 UNK         0.0873 
     77 H77        30.0614   23.8252    1.1988 H         1 UNK         0.0745 
     78 H78        31.2986   23.0092    0.2874 H         1 UNK         0.0745 
     79 H79        30.1119   26.5642    1.3839 H         1 UNK         0.0705 
     80 H80        31.5484   27.2712    2.0695 H         1 UNK         0.0705 
     81 H81        32.4486   26.4742    4.2578 H         1 UNK         0.1334 
     82 H82        29.5794   24.6972    6.9029 H         1 UNK         0.1417 
     83 H83        28.7069   25.0643    2.7190 H         1 UNK         0.1562 
     84 H84        27.3507   24.2870    6.1591 H         1 UNK         0.0748 
     85 H85        27.6346   23.1669    4.8492 H         1 UNK         0.0748 
     86 H86        26.7219   26.7812    5.7292 H         1 UNK         0.0940 
     87 H87        25.2337   27.0596    4.8619 H         1 UNK         0.0940 
     88 H88        28.0635   27.4133    3.7686 H         1 UNK         0.0703 
     89 H89        25.6857   27.0512    2.2431 H         1 UNK         0.3081 
     90 H90        25.6545   28.3219   -0.1792 H         1 UNK         0.0719 
     91 H91        28.4328   27.4816   -1.1730 H         1 UNK         0.0809 
     92 H92        27.0418   27.8248   -2.1977 H         1 UNK         0.0809 
     93 H93        27.7669   29.1034   -1.2443 H         1 UNK         0.0809 
     94 H94        26.7863   25.7137   -0.7201 H         1 UNK         0.2990 
     95 H95        25.1339   23.7253    1.0326 H         1 UNK         0.0690 
     96 H96        23.2973   22.7779   -0.3954 H         1 UNK         0.0788 
     97 H97        23.0619   24.3631   -1.1320 H         1 UNK         0.0788 
     98 H98        22.7566   24.1324    0.5806 H         1 UNK         0.0788 
     99 H99        26.5465   23.0524   -0.5230 H         1 UNK         0.2993 
    100 H100       27.1093   22.2292   -2.7591 H         1 UNK         0.0949 
    101 H101       27.0316   24.5637   -4.7499 H         1 UNK         0.0767 
    102 H102       27.8729   23.0319   -4.9796 H         1 UNK         0.0767 
    103 H103       26.1190   23.0662   -4.8943 H         1 UNK         0.0767 
    104 H104       28.7060   24.6978   -2.9749 H         1 UNK         0.3013 
    105 H105       28.9571   29.1847    4.3492 H         1 UNK         0.3121 
    106 H106       29.4630   31.2167    4.9757 H         1 UNK         0.0774 
    107 H107       27.9859   32.6309    6.3212 H         1 UNK         0.0815 
    108 H108       26.5691   31.7144    5.8435 H         1 UNK         0.0815 
    109 H109       27.8087   30.9680    6.8526 H         1 UNK         0.0815 
    110 H110       27.8648   30.5711    2.2881 H         1 UNK         0.2987 
    111 H111       27.7529   33.3921    1.2900 H         1 UNK         0.0949 
    112 H112       26.6429   32.3980   -0.6988 H         1 UNK         0.0806 
    113 H113       26.7257   30.7985    0.0225 H         1 UNK         0.0806 
    114 H114       25.7386   32.0507    0.7665 H         1 UNK         0.0806 
    115 H115       29.2086   30.1633    0.7921 H         1 UNK         0.3010 
    116 H116       31.4047   31.2541   -0.8745 H         1 UNK         0.0829 
    117 H117       30.4297   29.0646   -1.5230 H         1 UNK         0.0813 
    118 H118       32.0736   28.8219   -0.9740 H         1 UNK         0.0813 
    119 H119       30.7286   28.4196    0.0835 H         1 UNK         0.0813 
    120 H120       33.5785   30.0207   -0.0404 H         1 UNK         0.3038 
    121 H121       34.5401   31.5570    2.0850 H         1 UNK         0.0769 
    122 H122       36.5844   30.1174    1.8550 H         1 UNK         0.0811 
    123 H123       35.9807   30.6325    0.2890 H         1 UNK         0.0811 
    124 H124       35.6822   28.9878    0.8563 H         1 UNK         0.0811 
    125 H125       34.9546   31.2367    4.2161 H         1 UNK         0.3204 
    126 H126       33.3213   29.3878    5.6752 H         1 UNK         0.0748 
    127 H127       35.5216   31.3141    6.6211 H         1 UNK         0.0771 
    128 H128       33.8102   31.7095    6.4611 H         1 UNK         0.0771 
    129 H129       34.3311   30.5367    7.6554 H         1 UNK         0.0771 
    130 H130       34.0148   27.9238    7.3095 H         1 UNK         0.2980 
    131 H131       36.1674   26.1547    6.4831 H         1 UNK         0.0545 
    132 H132       37.6538   28.3802    9.4768 H         1 UNK         0.3459 
    133 H133       36.2748   28.8993    8.5412 H         1 UNK         0.3459 
    134 H134       34.1022   25.9069    8.7341 H         1 UNK         0.0616 
    135 H135       35.2713   24.6769    8.3308 H         1 UNK         0.0616 
    136 H136       31.6275   25.4985    7.8093 H         1 UNK         0.0634 
    137 H137       32.3316   26.8387    6.9349 H         1 UNK         0.0634 
@<TRIPOS>BOND
     1    1    2 1    
     2    1   72 1    
     3    1   73 1    
     4    1   74 1    
     5    2    3 2    
     6    2    4 am   BACKBONE|DICT|INTERRES
     7    4    5 1    
     8    4   75 1    
     9    5    6 1    
    10    5   35 1    
    11    5   76 1    
    12    6    7 1    
    13    6   77 1    
    14    6   78 1    
    15    7    8 1    
    16    8    9 1    
    17    8   79 1    
    18    8   80 1    
    19    9   10 ar   
    20    9   14 ar   
    21   10   11 ar   
    22   10   81 1    
    23   11   12 ar   
    24   11   71 1    
    25   12   13 ar   
    26   12   82 1    
    27   13   14 ar   
    28   13   15 1    
    29   14   83 1    
    30   15   16 1    
    31   15   84 1    
    32   15   85 1    
    33   16   17 1    
    34   17   18 1    
    35   17   86 1    
    36   17   87 1    
    37   18   19 1    
    38   18   37 1    
    39   18   88 1    
    40   19   20 am   BACKBONE|DICT|INTERRES
    41   19   89 1    
    42   20   21 2    
    43   20   22 1    
    44   22   23 1    
    45   22   24 1    
    46   22   90 1    
    47   23   91 1    
    48   23   92 1    
    49   23   93 1    
    50   24   25 am   BACKBONE|DICT|INTERRES
    51   24   94 1    
    52   25   26 2    
    53   25   27 1    
    54   27   28 1    
    55   27   29 1    
    56   27   95 1    
    57   28   96 1    
    58   28   97 1    
    59   28   98 1    
    60   29   30 am   BACKBONE|DICT|INTERRES
    61   29   99 1    
    62   30   31 2    
    63   30   32 1    
    64   32   33 1    
    65   32   34 1    
    66   32  100 1    
    67   33  101 1    
    68   33  102 1    
    69   33  103 1    
    70   34   35 am   BACKBONE|DICT|INTERRES
    71   34  104 1    
    72   35   36 2    
    73   37   38 2    
    74   37   39 am   BACKBONE|DICT|INTERRES
    75   39   40 1    
    76   39  105 1    
    77   40   41 1    
    78   40   42 1    
    79   40  106 1    
    80   41  107 1    
    81   41  108 1    
    82   41  109 1    
    83   42   43 2    
    84   42   44 am   BACKBONE|DICT|INTERRES
    85   44   45 1    
    86   44  110 1    
    87   45   46 1    
    88   45   47 1    
    89   45  111 1    
    90   46  112 1    
    91   46  113 1    
    92   46  114 1    
    93   47   48 2    
    94   47   49 am   BACKBONE|DICT|INTERRES
    95   49   50 1    
    96   49  115 1    
    97   50   51 1    
    98   50   52 1    
    99   50  116 1    
   100   51  117 1    
   101   51  118 1    
   102   51  119 1    
   103   52   53 2    
   104   52   54 am   BACKBONE|DICT|INTERRES
   105   54   55 1    
   106   54  120 1    
   107   55   56 1    
   108   55   57 1    
   109   55  121 1    
   110   56  122 1    
   111   56  123 1    
   112   56  124 1    
   113   57   58 2    
   114   57   59 am   BACKBONE|DICT|INTERRES
   115   59   60 1    
   116   59  125 1    
   117   60   61 1    
   118   60   62 1    
   119   60  126 1    
   120   61  127 1    
   121   61  128 1    
   122   61  129 1    
   123   62   63 2    
   124   62   64 am   BACKBONE|DICT|INTERRES
   125   64   65 1    
   126   64  130 1    
   127   65   66 1    
   128   65   69 1    
   129   65  131 1    
   130   66   67 am   BACKBONE|DICT|INTERRES
   131   66   68 2    
   132   67  132 1    
   133   67  133 1    
   134   69   70 1    
   135   69  134 1    
   136   69  135 1    
   137   70   71 1    
   138   71  136 1    
   139   71  137 1    
@<TRIPOS>SUBSTRUCTURE
     1 UNK         1 GROUP             0       ****    0 ROOT    
