@<TRIPOS>MOLECULE
3R136
137   139    1
SMALL
USER_CHARGES


@<TRIPOS>ATOM
      1 CA         29.0910   17.7657   -3.9835 C.3       0 UNK        -0.1979 
      2 C          29.2040   18.7053   -2.7916 C.2       0 UNK         0.4864 
      3 O          29.3615   18.2380   -1.6625 O.2       0 UNK        -0.5359 
      4 N          29.1296   20.0208   -3.0401 N.am      1 UNK        -0.4318 
      5 CA         29.1643   21.0965   -2.0415 C.3       1 UNK         0.0824 
      6 C6         30.5252   21.1682   -1.2856 C.3       12 UNK        -0.0944 
      7 S7         30.8665   22.8297   -0.6116 S.3       12 UNK        -0.2672 
      8 C8         31.4743   22.4389    1.0589 C.3       12 UNK         0.0333 
      9 C9         31.3128   23.6389    1.9775 C.ar      12 UNK        -0.0807 
     10 C10        32.2576   24.6683    1.9682 C.ar      12 UNK        -0.0894 
     11 C11        32.0969   25.7855    2.7933 C.ar      12 UNK        -0.0804 
     12 C12        30.9830   25.8674    3.6363 C.ar      12 UNK        -0.0824 
     13 C13        30.0385   24.8371    3.6617 C.ar      12 UNK        -0.0762 
     14 C14        30.2095   23.7266    2.8307 C.ar      12 UNK        -0.0782 
     15 C15        28.8359   24.9063    4.5896 C.3       12 UNK         0.0230 
     16 S16        27.4242   25.7340    3.7918 S.3       12 UNK        -0.2608 
     17 C17        27.6104   27.4621    4.3583 C.3       12 UNK        -0.0989 
     18 CA         28.0865   28.4391    3.2537 C.3       5 UNK         0.0716 
     19 N          27.2719   28.3326    2.0364 N.am      5 UNK        -0.4135 
     20 C          27.4857   28.9832    0.8841 C.2       4 UNK         0.5031 
     21 O          28.3582   29.8416    0.7435 O.2       4 UNK        -0.5229 
     22 CA         26.5410   28.6581   -0.2918 C.3       4 UNK         0.0329 
     23 CB         27.2165   28.8736   -1.6633 C.3       4 UNK        -0.2001 
     24 N          25.9143   27.3284   -0.2156 N.am      4 UNK        -0.4303 
     25 C          26.5309   26.1378   -0.2547 C.2       3 UNK         0.5044 
     26 O          27.7505   25.9838   -0.3571 O.2       3 UNK        -0.5152 
     27 CA         25.6181   24.9088   -0.1778 C.3       3 UNK         0.0319 
     28 CB         24.9540   24.6255   -1.5386 C.3       3 UNK        -0.2001 
     29 N          26.4191   23.7612    0.2319 N.am      3 UNK        -0.4354 
     30 C          25.9585   22.6497    0.8170 C.2       2 UNK         0.4964 
     31 O          24.7693   22.4599    1.0800 O.2       2 UNK        -0.5047 
     32 CA         27.0099   21.5759    1.1647 C.3       2 UNK         0.0288 
     33 CB         26.3895   20.2023    1.5013 C.3       2 UNK        -0.2113 
     34 N          28.0533   21.4452    0.1371 N.am      2 UNK        -0.4145 
     35 C          27.9014   21.0710   -1.1431 C.2       1 UNK         0.5006 
     36 O          26.8183   20.7491   -1.6396 O.2       1 UNK        -0.5103 
     37 C          28.1529   29.8737    3.8227 C.2       5 UNK         0.5055 
     38 O          29.1734   30.2499    4.3975 O.2       5 UNK        -0.5220 
     39 N          27.0663   30.6434    3.6580 N.am      6 UNK        -0.4450 
     40 CA         26.9712   32.0438    4.0768 C.3       6 UNK         0.0367 
     41 CB         25.4922   32.4595    4.1297 C.3       6 UNK        -0.1929 
     42 C          27.7647   32.9989    3.1679 C.2       6 UNK         0.5070 
     43 O          28.2450   34.0244    3.6509 O.2       6 UNK        -0.5237 
     44 N          27.8853   32.6572    1.8769 N.am      7 UNK        -0.4739 
     45 CA         28.6831   33.4027    0.9017 C.3       7 UNK         0.0276 
     46 CB         28.1666   33.1266   -0.5198 C.3       7 UNK        -0.1927 
     47 C          30.1686   33.0421    1.0305 C.2       7 UNK         0.5013 
     48 O          31.0139   33.9371    1.0757 O.2       7 UNK        -0.5193 
     49 N          30.4596   31.7397    1.1475 N.am      8 UNK        -0.4253 
     50 CA         31.7896   31.1814    1.3956 C.3       8 UNK         0.0242 
     51 CB         31.8147   29.7310    0.8829 C.3       8 UNK        -0.2000 
     52 C          32.1837   31.3020    2.8825 C.2       8 UNK         0.4948 
     53 O          32.5061   30.3035    3.5284 O.2       8 UNK        -0.5275 
     54 N          32.1644   32.5390    3.3986 N.am      9 UNK        -0.4246 
     55 CA         32.3669   32.9019    4.8066 C.3       9 UNK         0.0261 
     56 CB         32.1586   34.4165    4.9649 C.3       9 UNK        -0.1959 
     57 C          33.7165   32.4742    5.4142 C.2       9 UNK         0.5033 
     58 O          33.8230   32.4001    6.6392 O.2       9 UNK        -0.5390 
     59 N          34.7071   32.1640    4.5653 N.am      10 UNK        -0.4215 
     60 CA         36.0111   31.6051    4.9338 C.3       10 UNK         0.0240 
     61 CB         36.8660   31.4455    3.6660 C.3       10 UNK        -0.1982 
     62 C          35.9341   30.2692    5.7001 C.2       10 UNK         0.4970 
     63 O          36.8444   29.9822    6.4788 O.2       10 UNK        -0.4916 
     64 N          34.8590   29.4943    5.4934 N.am      11 UNK        -0.4279 
     65 CA         34.5546   28.2847    6.2759 C.3       11 UNK         0.1003 
     66 C          33.9791   28.5706    7.6960 C.2       11 UNK         0.5709 
     67 N          33.6767   29.8085    8.0725 N.am      11 UNK        -0.7358 
     68 O          33.8160   27.6434    8.4859 O.2       11 UNK        -0.4999 
     69 C69        33.6496   27.2982    5.4931 C.3       12 UNK        -0.0954 
     70 S70        34.4437   26.6864    3.9681 S.3       12 UNK        -0.2268 
     71 C71        33.1162   26.9123    2.7474 C.3       12 UNK         0.0203 
     72 H72        28.2338   17.1046   -3.8593 H         1 UNK         0.0888 
     73 H73        28.9678   18.3079   -4.9209 H         1 UNK         0.0888 
     74 H74        29.9873   17.1511   -4.0630 H         1 UNK         0.0888 
     75 H75        28.9680   20.3275   -3.9894 H         1 UNK         0.3017 
     76 H76        29.0708   22.0122   -2.6278 H         1 UNK         0.0873 
     77 H77        30.5849   20.4048   -0.5078 H         1 UNK         0.0745 
     78 H78        31.3400   20.9426   -1.9755 H         1 UNK         0.0745 
     79 H79        32.5237   22.1452    1.0020 H         1 UNK         0.0705 
     80 H80        30.9376   21.5827    1.4702 H         1 UNK         0.0705 
     81 H81        33.1116   24.6053    1.3074 H         1 UNK         0.1334 
     82 H82        30.8488   26.7323    4.2707 H         1 UNK         0.1417 
     83 H83        29.4797   22.9306    2.8498 H         1 UNK         0.1562 
     84 H84        29.1009   25.3990    5.5258 H         1 UNK         0.0748 
     85 H85        28.5286   23.8967    4.8668 H         1 UNK         0.0748 
     86 H86        28.2917   27.4986    5.2103 H         1 UNK         0.0940 
     87 H87        26.6395   27.7758    4.7476 H         1 UNK         0.0940 
     88 H88        29.1045   28.1626    2.9712 H         1 UNK         0.0703 
     89 H89        26.5446   27.6336    2.0598 H         1 UNK         0.3081 
     90 H90        25.7243   29.3775   -0.2176 H         1 UNK         0.0719 
     91 H91        28.1021   28.2484   -1.7808 H         1 UNK         0.0809 
     92 H92        26.5342   28.6476   -2.4826 H         1 UNK         0.0809 
     93 H93        27.5347   29.9092   -1.7866 H         1 UNK         0.0809 
     94 H94        24.9062   27.3331   -0.1333 H         1 UNK         0.2990 
     95 H95        24.8507   25.0967    0.5764 H         1 UNK         0.0690 
     96 H96        24.2887   23.7634   -1.4849 H         1 UNK         0.0788 
     97 H97        25.6964   24.4250   -2.3123 H         1 UNK         0.0788 
     98 H98        24.3549   25.4740   -1.8712 H         1 UNK         0.0788 
     99 H99        27.4142   23.8867    0.0891 H         1 UNK         0.2993 
    100 H100       27.5061   21.9333    2.0671 H         1 UNK         0.0949 
    101 H101       25.8099   19.8029    0.6684 H         1 UNK         0.0767 
    102 H102       27.1577   19.4720    1.7556 H         1 UNK         0.0767 
    103 H103       25.7177   20.2761    2.3575 H         1 UNK         0.0767 
    104 H104       28.9819   21.7379    0.4098 H         1 UNK         0.3013 
    105 H105       26.2624   30.2483    3.1925 H         1 UNK         0.3121 
    106 H106       27.3846   32.1298    5.0843 H         1 UNK         0.0774 
    107 H107       25.3907   33.4927    4.4652 H         1 UNK         0.0815 
    108 H108       25.0150   32.3873    3.1516 H         1 UNK         0.0815 
    109 H109       24.9293   31.8384    4.8266 H         1 UNK         0.0815 
    110 H110       27.5174   31.7657    1.5735 H         1 UNK         0.2987 
    111 H111       28.5779   34.4724    1.0974 H         1 UNK         0.0949 
    112 H112       28.7318   33.7001   -1.2557 H         1 UNK         0.0806 
    113 H113       28.2561   32.0745   -0.7906 H         1 UNK         0.0806 
    114 H114       27.1194   33.4112   -0.6229 H         1 UNK         0.0806 
    115 H115       29.6945   31.0693    1.0960 H         1 UNK         0.3010 
    116 H116       32.5223   31.7495    0.8187 H         1 UNK         0.0829 
    117 H117       31.5381   29.6778   -0.1702 H         1 UNK         0.0813 
    118 H118       32.8133   29.3039    0.9753 H         1 UNK         0.0813 
    119 H119       31.1238   29.0957    1.4391 H         1 UNK         0.0813 
    120 H120       31.8857   33.2885    2.7727 H         1 UNK         0.3038 
    121 H121       31.5900   32.3896    5.3781 H         1 UNK         0.0769 
    122 H122       31.1594   34.7141    4.6448 H         1 UNK         0.0811 
    123 H123       32.8830   34.9861    4.3816 H         1 UNK         0.0811 
    124 H124       32.2662   34.7204    6.0072 H         1 UNK         0.0811 
    125 H125       34.5148   32.2507    3.5784 H         1 UNK         0.3204 
    126 H126       36.5002   32.3272    5.5909 H         1 UNK         0.0748 
    127 H127       37.8564   31.0577    3.9091 H         1 UNK         0.0771 
    128 H128       36.4101   30.7528    2.9570 H         1 UNK         0.0771 
    129 H129       37.0102   32.4003    3.1599 H         1 UNK         0.0771 
    130 H130       34.1455   29.7937    4.8379 H         1 UNK         0.2980 
    131 H131       35.4987   27.7667    6.4556 H         1 UNK         0.0545 
    132 H132       33.8106   30.6020    7.4544 H         1 UNK         0.3459 
    133 H133       33.3134   29.9591    8.9997 H         1 UNK         0.3459 
    134 H134       32.7007   27.7813    5.2572 H         1 UNK         0.0616 
    135 H135       33.4062   26.4237    6.0992 H         1 UNK         0.0616 
    136 H136       33.5614   26.9712    1.7532 H         1 UNK         0.0634 
    137 H137       32.6210   27.8654    2.9162 H         1 UNK         0.0634 
@<TRIPOS>BOND
     1    1    2 1    
     2    1   72 1    
     3    1   73 1    
     4    1   74 1    
     5    2    3 2    
     6    2    4 am   BACKBONE|DICT|INTERRES
     7    4    5 1    
     8    4   75 1    
     9    5    6 1    
    10    5   35 1    
    11    5   76 1    
    12    6    7 1    
    13    6   77 1    
    14    6   78 1    
    15    7    8 1    
    16    8    9 1    
    17    8   79 1    
    18    8   80 1    
    19    9   10 ar   
    20    9   14 ar   
    21   10   11 ar   
    22   10   81 1    
    23   11   12 ar   
    24   11   71 1    
    25   12   13 ar   
    26   12   82 1    
    27   13   14 ar   
    28   13   15 1    
    29   14   83 1    
    30   15   16 1    
    31   15   84 1    
    32   15   85 1    
    33   16   17 1    
    34   17   18 1    
    35   17   86 1    
    36   17   87 1    
    37   18   19 1    
    38   18   37 1    
    39   18   88 1    
    40   19   20 am   BACKBONE|DICT|INTERRES
    41   19   89 1    
    42   20   21 2    
    43   20   22 1    
    44   22   23 1    
    45   22   24 1    
    46   22   90 1    
    47   23   91 1    
    48   23   92 1    
    49   23   93 1    
    50   24   25 am   BACKBONE|DICT|INTERRES
    51   24   94 1    
    52   25   26 2    
    53   25   27 1    
    54   27   28 1    
    55   27   29 1    
    56   27   95 1    
    57   28   96 1    
    58   28   97 1    
    59   28   98 1    
    60   29   30 am   BACKBONE|DICT|INTERRES
    61   29   99 1    
    62   30   31 2    
    63   30   32 1    
    64   32   33 1    
    65   32   34 1    
    66   32  100 1    
    67   33  101 1    
    68   33  102 1    
    69   33  103 1    
    70   34   35 am   BACKBONE|DICT|INTERRES
    71   34  104 1    
    72   35   36 2    
    73   37   38 2    
    74   37   39 am   BACKBONE|DICT|INTERRES
    75   39   40 1    
    76   39  105 1    
    77   40   41 1    
    78   40   42 1    
    79   40  106 1    
    80   41  107 1    
    81   41  108 1    
    82   41  109 1    
    83   42   43 2    
    84   42   44 am   BACKBONE|DICT|INTERRES
    85   44   45 1    
    86   44  110 1    
    87   45   46 1    
    88   45   47 1    
    89   45  111 1    
    90   46  112 1    
    91   46  113 1    
    92   46  114 1    
    93   47   48 2    
    94   47   49 am   BACKBONE|DICT|INTERRES
    95   49   50 1    
    96   49  115 1    
    97   50   51 1    
    98   50   52 1    
    99   50  116 1    
   100   51  117 1    
   101   51  118 1    
   102   51  119 1    
   103   52   53 2    
   104   52   54 am   BACKBONE|DICT|INTERRES
   105   54   55 1    
   106   54  120 1    
   107   55   56 1    
   108   55   57 1    
   109   55  121 1    
   110   56  122 1    
   111   56  123 1    
   112   56  124 1    
   113   57   58 2    
   114   57   59 am   BACKBONE|DICT|INTERRES
   115   59   60 1    
   116   59  125 1    
   117   60   61 1    
   118   60   62 1    
   119   60  126 1    
   120   61  127 1    
   121   61  128 1    
   122   61  129 1    
   123   62   63 2    
   124   62   64 am   BACKBONE|DICT|INTERRES
   125   64   65 1    
   126   64  130 1    
   127   65   66 1    
   128   65   69 1    
   129   65  131 1    
   130   66   67 am   BACKBONE|DICT|INTERRES
   131   66   68 2    
   132   67  132 1    
   133   67  133 1    
   134   69   70 1    
   135   69  134 1    
   136   69  135 1    
   137   70   71 1    
   138   71  136 1    
   139   71  137 1    
@<TRIPOS>SUBSTRUCTURE
     1 UNK         1 GROUP             0       ****    0 ROOT    
