@<TRIPOS>MOLECULE
3R136
137   139    1
SMALL
USER_CHARGES


@<TRIPOS>ATOM
      1 CA         25.8905   19.8895    0.6167 C.3       0 UNK        -0.1979 
      2 C          26.5023   20.8440   -0.3981 C.2       0 UNK         0.4864 
      3 O          26.0918   20.8478   -1.5592 O.2       0 UNK        -0.5359 
      4 N          27.4781   21.6559    0.0323 N.am      1 UNK        -0.4318 
      5 CA         28.2059   22.6160   -0.8121 C.3       1 UNK         0.0824 
      6 C6         29.5679   23.0243   -0.1950 C.3       12 UNK        -0.0944 
      7 S7         30.6233   21.5938    0.2198 S.3       12 UNK        -0.2672 
      8 C8         32.0744   22.4157    0.9731 C.3       12 UNK         0.0333 
      9 C9         31.8484   23.0861    2.3322 C.ar      12 UNK        -0.0807 
     10 C10        32.8810   23.8636    2.8681 C.ar      12 UNK        -0.0894 
     11 C11        32.7270   24.5210    4.0928 C.ar      12 UNK        -0.0804 
     12 C12        31.5200   24.4038    4.7893 C.ar      12 UNK        -0.0824 
     13 C13        30.4669   23.6567    4.2522 C.ar      12 UNK        -0.0762 
     14 C14        30.6512   22.9702    3.0503 C.ar      12 UNK        -0.0782 
     15 C15        29.1022   23.6413    4.9233 C.3       12 UNK         0.0230 
     16 S16        28.2512   25.2486    4.7629 S.3       12 UNK        -0.2608 
     17 C17        28.2486   25.5846    2.9560 C.3       12 UNK        -0.0989 
     18 CA         29.4957   26.3339    2.3934 C.3       5 UNK         0.0716 
     19 N          29.3858   26.5851    0.9509 N.am      5 UNK        -0.4135 
     20 C          30.4469   26.7516    0.1413 C.2       4 UNK         0.5031 
     21 O          31.6073   26.5733    0.5116 O.2       4 UNK        -0.5229 
     22 CA         30.2146   27.1994   -1.3174 C.3       4 UNK         0.0329 
     23 CB         30.8308   26.2208   -2.3333 C.3       4 UNK        -0.2001 
     24 N          28.8040   27.4079   -1.6428 N.am      4 UNK        -0.4303 
     25 C          28.1704   28.5858   -1.5464 C.2       3 UNK         0.5044 
     26 O          28.7338   29.6401   -1.2556 O.2       3 UNK        -0.5152 
     27 CA         26.6502   28.6067   -1.8068 C.3       3 UNK         0.0319 
     28 CB         26.3521   29.1857   -3.1991 C.3       3 UNK        -0.2001 
     29 N          25.9903   27.3028   -1.6800 N.am      3 UNK        -0.4354 
     30 C          25.9497   26.5616   -0.5645 C.2       2 UNK         0.4964 
     31 O          26.4647   26.9079    0.4980 O.2       2 UNK        -0.5047 
     32 CA         25.2779   25.1789   -0.6504 C.3       2 UNK         0.0288 
     33 CB         24.4667   24.9489   -1.9468 C.3       2 UNK        -0.2113 
     34 N          26.2483   24.0930   -0.4596 N.am      2 UNK        -0.4145 
     35 C          27.3705   23.8690   -1.1659 C.2       1 UNK         0.5006 
     36 O          27.7641   24.6106   -2.0684 O.2       1 UNK        -0.5103 
     37 C          29.7895   27.6553    3.1321 C.2       5 UNK         0.5055 
     38 O          29.4062   28.7300    2.6610 O.2       5 UNK        -0.5220 
     39 N          30.4225   27.5364    4.3080 N.am      6 UNK        -0.4450 
     40 CA         30.8074   28.6042    5.2375 C.3       6 UNK         0.0367 
     41 CB         31.3697   27.9816    6.5257 C.3       6 UNK        -0.1929 
     42 C          29.6893   29.5967    5.5961 C.2       6 UNK         0.5070 
     43 O          29.9874   30.7594    5.8619 O.2       6 UNK        -0.5237 
     44 N          28.4289   29.1438    5.5486 N.am      7 UNK        -0.4739 
     45 CA         27.2260   29.9660    5.7096 C.3       7 UNK         0.0276 
     46 CB         25.9901   29.0544    5.6418 C.3       7 UNK        -0.1927 
     47 C          27.1022   31.1152    4.6873 C.2       7 UNK         0.5013 
     48 O          26.4479   32.1130    4.9937 O.2       7 UNK        -0.5193 
     49 N          27.7303   30.9630    3.5131 N.am      8 UNK        -0.4253 
     50 CA         27.8040   31.9775    2.4623 C.3       8 UNK         0.0242 
     51 CB         27.0461   31.4719    1.2241 C.3       8 UNK        -0.2000 
     52 C          29.2577   32.3291    2.1051 C.2       8 UNK         0.4948 
     53 O          29.5515   33.5059    1.8929 O.2       8 UNK        -0.5275 
     54 N          30.1392   31.3224    2.0311 N.am      9 UNK        -0.4246 
     55 CA         31.5109   31.4528    1.5301 C.3       9 UNK         0.0261 
     56 CB         31.8735   30.1665    0.7706 C.3       9 UNK        -0.1959 
     57 C          32.5648   31.7323    2.6140 C.2       9 UNK         0.5033 
     58 O          33.7329   31.9030    2.2610 O.2       9 UNK        -0.5390 
     59 N          32.1798   31.7257    3.8990 N.am      10 UNK        -0.4215 
     60 CA         33.0118   31.8897    5.1056 C.3       10 UNK         0.0240 
     61 CB         33.7080   33.2651    5.1300 C.3       10 UNK        -0.1982 
     62 C          34.0231   30.7553    5.3783 C.2       10 UNK         0.4970 
     63 O          34.2282   30.4196    6.5447 O.2       10 UNK        -0.4916 
     64 N          34.6332   30.1967    4.3246 N.am      11 UNK        -0.4279 
     65 CA         35.6878   29.1646    4.3517 C.3       11 UNK         0.1003 
     66 C          37.0343   29.6412    4.9828 C.2       11 UNK         0.5709 
     67 N          37.2874   30.9401    5.0974 N.am      11 UNK        -0.7358 
     68 O          37.8828   28.8285    5.3435 O.2       11 UNK        -0.4999 
     69 C69        35.2045   27.7956    4.9181 C.3       12 UNK        -0.0954 
     70 S70        33.8787   27.0352    3.9251 S.3       12 UNK        -0.2268 
     71 C71        33.8627   25.3655    4.6523 C.3       12 UNK         0.0203 
     72 H72        24.8217   20.0786    0.7133 H         1 UNK         0.0888 
     73 H73        26.0262   18.8588    0.2903 H         1 UNK         0.0888 
     74 H74        26.3442   19.9949    1.6020 H         1 UNK         0.0888 
     75 H75        27.7969   21.5832    0.9875 H         1 UNK         0.3017 
     76 H76        28.4178   22.1186   -1.7614 H         1 UNK         0.0873 
     77 H77        30.1302   23.6443   -0.8918 H         1 UNK         0.0745 
     78 H78        29.4169   23.6345    0.6946 H         1 UNK         0.0745 
     79 H79        32.4525   23.1579    0.2679 H         1 UNK         0.0705 
     80 H80        32.8619   21.6696    1.0871 H         1 UNK         0.0705 
     81 H81        33.8096   23.9686    2.3232 H         1 UNK         0.1334 
     82 H82        31.3865   24.9175    5.7318 H         1 UNK         0.1417 
     83 H83        29.8347   22.3795    2.6637 H         1 UNK         0.1562 
     84 H84        29.2206   23.4053    5.9818 H         1 UNK         0.0748 
     85 H85        28.4668   22.8592    4.5048 H         1 UNK         0.0748 
     86 H86        27.3506   26.1700    2.7565 H         1 UNK         0.0940 
     87 H87        28.1065   24.6420    2.4272 H         1 UNK         0.0940 
     88 H88        30.3653   25.6953    2.5369 H         1 UNK         0.0703 
     89 H89        28.4567   26.8125    0.6118 H         1 UNK         0.3081 
     90 H90        30.7546   28.1408   -1.4304 H         1 UNK         0.0719 
     91 H91        31.8638   25.9788   -2.0793 H         1 UNK         0.0809 
     92 H92        30.2791   25.2854   -2.3934 H         1 UNK         0.0809 
     93 H93        30.8417   26.6560   -3.3326 H         1 UNK         0.0809 
     94 H94        28.2723   26.5790   -1.8923 H         1 UNK         0.2990 
     95 H95        26.2082   29.2695   -1.0601 H         1 UNK         0.0690 
     96 H96        25.2802   29.2994   -3.3619 H         1 UNK         0.0788 
     97 H97        26.7491   28.5514   -3.9928 H         1 UNK         0.0788 
     98 H98        26.8013   30.1732   -3.3157 H         1 UNK         0.0788 
     99 H99        25.5707   26.9234   -2.5166 H         1 UNK         0.2993 
    100 H100       24.5823   25.1306    0.1889 H         1 UNK         0.0949 
    101 H101       23.9443   23.9926   -1.9110 H         1 UNK         0.0767 
    102 H102       23.7065   25.7198   -2.0813 H         1 UNK         0.0767 
    103 H103       25.0976   24.9396   -2.8366 H         1 UNK         0.0767 
    104 H104       26.0313   23.4412    0.2804 H         1 UNK         0.3013 
    105 H105       30.6726   26.6006    4.5925 H         1 UNK         0.3121 
    106 H106       31.6043   29.1643    4.7497 H         1 UNK         0.0774 
    107 H107       32.2390   27.3572    6.3288 H         1 UNK         0.0815 
    108 H108       31.6913   28.7565    7.2235 H         1 UNK         0.0815 
    109 H109       30.6251   27.3702    7.0370 H         1 UNK         0.0815 
    110 H110       28.2857   28.1698    5.3213 H         1 UNK         0.2987 
    111 H111       27.2688   30.4205    6.7017 H         1 UNK         0.0949 
    112 H112       26.0156   28.2907    6.4194 H         1 UNK         0.0806 
    113 H113       25.0730   29.6281    5.7834 H         1 UNK         0.0806 
    114 H114       25.9140   28.5500    4.6774 H         1 UNK         0.0806 
    115 H115       28.2426   30.1008    3.3493 H         1 UNK         0.3010 
    116 H116       27.3290   32.9037    2.7929 H         1 UNK         0.0829 
    117 H117       27.4224   30.5029    0.8958 H         1 UNK         0.0813 
    118 H118       27.1458   32.1649    0.3874 H         1 UNK         0.0813 
    119 H119       25.9817   31.3616    1.4314 H         1 UNK         0.0813 
    120 H120       29.8218   30.3696    2.2090 H         1 UNK         0.3038 
    121 H121       31.5566   32.2814    0.8202 H         1 UNK         0.0769 
    122 H122       31.1576   29.9712   -0.0262 H         1 UNK         0.0811 
    123 H123       31.8919   29.2978    1.4300 H         1 UNK         0.0811 
    124 H124       32.8576   30.2435    0.3065 H         1 UNK         0.0811 
    125 H125       31.1991   31.5600    4.0893 H         1 UNK         0.3204 
    126 H126       32.3151   31.8774    5.9442 H         1 UNK         0.0748 
    127 H127       34.4466   33.3679    4.3347 H         1 UNK         0.0771 
    128 H128       32.9863   34.0749    5.0232 H         1 UNK         0.0771 
    129 H129       34.2293   33.4194    6.0758 H         1 UNK         0.0771 
    130 H130       34.4316   30.6014    3.4142 H         1 UNK         0.2980 
    131 H131       35.9405   28.9977    3.3042 H         1 UNK         0.0545 
    132 H132       38.1644   31.2378    5.4948 H         1 UNK         0.3459 
    133 H133       36.6146   31.6220    4.7874 H         1 UNK         0.3459 
    134 H134       34.8621   27.8978    5.9486 H         1 UNK         0.0616 
    135 H135       36.0293   27.0815    4.9420 H         1 UNK         0.0616 
    136 H136       33.7757   25.4435    5.7370 H         1 UNK         0.0634 
    137 H137       34.8183   24.8777    4.4542 H         1 UNK         0.0634 
@<TRIPOS>BOND
     1    1    2 1    
     2    1   72 1    
     3    1   73 1    
     4    1   74 1    
     5    2    3 2    
     6    2    4 am   BACKBONE|DICT|INTERRES
     7    4    5 1    
     8    4   75 1    
     9    5    6 1    
    10    5   35 1    
    11    5   76 1    
    12    6    7 1    
    13    6   77 1    
    14    6   78 1    
    15    7    8 1    
    16    8    9 1    
    17    8   79 1    
    18    8   80 1    
    19    9   10 ar   
    20    9   14 ar   
    21   10   11 ar   
    22   10   81 1    
    23   11   12 ar   
    24   11   71 1    
    25   12   13 ar   
    26   12   82 1    
    27   13   14 ar   
    28   13   15 1    
    29   14   83 1    
    30   15   16 1    
    31   15   84 1    
    32   15   85 1    
    33   16   17 1    
    34   17   18 1    
    35   17   86 1    
    36   17   87 1    
    37   18   19 1    
    38   18   37 1    
    39   18   88 1    
    40   19   20 am   BACKBONE|DICT|INTERRES
    41   19   89 1    
    42   20   21 2    
    43   20   22 1    
    44   22   23 1    
    45   22   24 1    
    46   22   90 1    
    47   23   91 1    
    48   23   92 1    
    49   23   93 1    
    50   24   25 am   BACKBONE|DICT|INTERRES
    51   24   94 1    
    52   25   26 2    
    53   25   27 1    
    54   27   28 1    
    55   27   29 1    
    56   27   95 1    
    57   28   96 1    
    58   28   97 1    
    59   28   98 1    
    60   29   30 am   BACKBONE|DICT|INTERRES
    61   29   99 1    
    62   30   31 2    
    63   30   32 1    
    64   32   33 1    
    65   32   34 1    
    66   32  100 1    
    67   33  101 1    
    68   33  102 1    
    69   33  103 1    
    70   34   35 am   BACKBONE|DICT|INTERRES
    71   34  104 1    
    72   35   36 2    
    73   37   38 2    
    74   37   39 am   BACKBONE|DICT|INTERRES
    75   39   40 1    
    76   39  105 1    
    77   40   41 1    
    78   40   42 1    
    79   40  106 1    
    80   41  107 1    
    81   41  108 1    
    82   41  109 1    
    83   42   43 2    
    84   42   44 am   BACKBONE|DICT|INTERRES
    85   44   45 1    
    86   44  110 1    
    87   45   46 1    
    88   45   47 1    
    89   45  111 1    
    90   46  112 1    
    91   46  113 1    
    92   46  114 1    
    93   47   48 2    
    94   47   49 am   BACKBONE|DICT|INTERRES
    95   49   50 1    
    96   49  115 1    
    97   50   51 1    
    98   50   52 1    
    99   50  116 1    
   100   51  117 1    
   101   51  118 1    
   102   51  119 1    
   103   52   53 2    
   104   52   54 am   BACKBONE|DICT|INTERRES
   105   54   55 1    
   106   54  120 1    
   107   55   56 1    
   108   55   57 1    
   109   55  121 1    
   110   56  122 1    
   111   56  123 1    
   112   56  124 1    
   113   57   58 2    
   114   57   59 am   BACKBONE|DICT|INTERRES
   115   59   60 1    
   116   59  125 1    
   117   60   61 1    
   118   60   62 1    
   119   60  126 1    
   120   61  127 1    
   121   61  128 1    
   122   61  129 1    
   123   62   63 2    
   124   62   64 am   BACKBONE|DICT|INTERRES
   125   64   65 1    
   126   64  130 1    
   127   65   66 1    
   128   65   69 1    
   129   65  131 1    
   130   66   67 am   BACKBONE|DICT|INTERRES
   131   66   68 2    
   132   67  132 1    
   133   67  133 1    
   134   69   70 1    
   135   69  134 1    
   136   69  135 1    
   137   70   71 1    
   138   71  136 1    
   139   71  137 1    
@<TRIPOS>SUBSTRUCTURE
     1 UNK         1 GROUP             0       ****    0 ROOT    
