@<TRIPOS>MOLECULE
3R136
137   139    1
SMALL
USER_CHARGES


@<TRIPOS>ATOM
      1 CA         26.6830   22.4666    2.7073 C.3       0 UNK        -0.1979 
      2 C          27.3305   21.8918    1.4562 C.2       0 UNK         0.4864 
      3 O          26.6266   21.4000    0.5731 O.2       0 UNK        -0.5359 
      4 N          28.6668   21.9489    1.3752 N.am      1 UNK        -0.4318 
      5 CA         29.4580   21.4853    0.2261 C.3       1 UNK         0.0824 
      6 C6         30.9427   21.2145    0.5871 C.3       12 UNK        -0.0944 
      7 S7         31.1269   20.1342    2.0524 S.3       12 UNK        -0.2672 
      8 C8         32.6182   20.8034    2.8765 C.3       12 UNK         0.0333 
      9 C9         32.5831   22.3068    3.1509 C.ar      12 UNK        -0.0807 
     10 C10        33.7587   23.0537    3.0212 C.ar      12 UNK        -0.0894 
     11 C11        33.7537   24.4354    3.2335 C.ar      12 UNK        -0.0804 
     12 C12        32.5536   25.0802    3.5457 C.ar      12 UNK        -0.0824 
     13 C13        31.3727   24.3461    3.6817 C.ar      12 UNK        -0.0762 
     14 C14        31.4005   22.9582    3.5204 C.ar      12 UNK        -0.0782 
     15 C15        30.0617   25.0536    3.9758 C.3       12 UNK         0.0230 
     16 S16        29.0999   25.2696    2.4464 S.3       12 UNK        -0.2608 
     17 C17        27.7110   26.2681    3.0676 C.3       12 UNK        -0.0989 
     18 CA         27.9059   27.7667    2.7207 C.3       5 UNK         0.0716 
     19 N          27.2978   28.1313    1.4326 N.am      5 UNK        -0.4135 
     20 C          27.3511   29.3553    0.8831 C.2       4 UNK         0.5031 
     21 O          28.0122   30.2798    1.3621 O.2       4 UNK        -0.5229 
     22 CA         26.5492   29.6103   -0.4053 C.3       4 UNK         0.0329 
     23 CB         27.1810   30.7230   -1.2628 C.3       4 UNK        -0.2001 
     24 N          26.4177   28.4017   -1.2176 N.am      4 UNK        -0.4303 
     25 C          25.2845   27.7140   -1.4121 C.2       3 UNK         0.5044 
     26 O          24.1997   28.0199   -0.9166 O.2       3 UNK        -0.5152 
     27 CA         25.3734   26.4644   -2.3100 C.3       3 UNK         0.0319 
     28 CB         24.8816   26.7894   -3.7299 C.3       3 UNK        -0.2001 
     29 N          26.7178   25.8796   -2.3883 N.am      3 UNK        -0.4354 
     30 C          27.3566   25.3151   -1.3557 C.2       2 UNK         0.4964 
     31 O          26.8865   25.2460   -0.2171 O.2       2 UNK        -0.5047 
     32 CA         28.7723   24.7958   -1.6322 C.3       2 UNK         0.0288 
     33 CB         29.7980   25.9284   -1.4503 C.3       2 UNK        -0.2113 
     34 N          29.0651   23.7379   -0.6732 N.am      2 UNK        -0.4145 
     35 C          29.3610   22.4646   -0.9641 C.2       1 UNK         0.5006 
     36 O          29.5461   22.0464   -2.1086 O.2       1 UNK        -0.5103 
     37 C          27.3872   28.6704    3.8561 C.2       5 UNK         0.5055 
     38 O          26.1729   28.7904    4.0293 O.2       5 UNK        -0.5220 
     39 N          28.3232   29.3156    4.5654 N.am      6 UNK        -0.4450 
     40 CA         28.1569   30.3095    5.6348 C.3       6 UNK         0.0367 
     41 CB         27.2980   29.7716    6.7964 C.3       6 UNK        -0.1929 
     42 C          27.6581   31.6860    5.1541 C.2       6 UNK         0.5070 
     43 O          27.9557   32.6846    5.8101 O.2       6 UNK        -0.5237 
     44 N          26.9387   31.7375    4.0252 N.am      7 UNK        -0.4739 
     45 CA         26.4964   32.9689    3.3682 C.3       7 UNK         0.0276 
     46 CB         25.3935   32.6404    2.3490 C.3       7 UNK        -0.1927 
     47 C          27.6579   33.7152    2.6911 C.2       7 UNK         0.5013 
     48 O          27.6980   34.9451    2.7477 O.2       7 UNK        -0.5193 
     49 N          28.5803   32.9613    2.0802 N.am      8 UNK        -0.4253 
     50 CA         29.7884   33.4769    1.4367 C.3       8 UNK         0.0242 
     51 CB         29.4930   33.8739   -0.0209 C.3       8 UNK        -0.2000 
     52 C          30.9513   32.4781    1.5069 C.2       8 UNK         0.4948 
     53 O          32.0873   32.9064    1.7161 O.2       8 UNK        -0.5275 
     54 N          30.6721   31.1792    1.3268 N.am      9 UNK        -0.4246 
     55 CA         31.6726   30.1150    1.3900 C.3       9 UNK         0.0261 
     56 CB         31.2230   28.9264    0.5237 C.3       9 UNK        -0.1959 
     57 C          31.8936   29.6859    2.8463 C.2       9 UNK         0.5033 
     58 O          30.9253   29.3834    3.5483 O.2       9 UNK        -0.5390 
     59 N          33.1601   29.6480    3.2639 N.am      10 UNK        -0.4215 
     60 CA         33.6166   29.2361    4.5860 C.3       10 UNK         0.0240 
     61 CB         33.3587   30.3530    5.6159 C.3       10 UNK        -0.1982 
     62 C          35.1098   28.9067    4.4849 C.2       10 UNK         0.4970 
     63 O          35.7817   29.3998    3.5741 O.2       10 UNK        -0.4916 
     64 N          35.5950   28.0807    5.4136 N.am      11 UNK        -0.4279 
     65 CA         36.9785   27.5804    5.4565 C.3       11 UNK         0.1003 
     66 C          37.4820   27.2693    6.8964 C.2       11 UNK         0.5709 
     67 N          36.7953   27.7034    7.9481 N.am      11 UNK        -0.7358 
     68 O          38.5269   26.6464    7.0714 O.2       11 UNK        -0.4999 
     69 C69        37.2235   26.4290    4.4368 C.3       12 UNK        -0.0954 
     70 S70        36.0560   25.0367    4.6208 S.3       12 UNK        -0.2268 
     71 C71        35.0432   25.2316    3.1216 C.3       12 UNK         0.0203 
     72 H72        26.0238   21.7289    3.1639 H         1 UNK         0.0888 
     73 H73        27.4227   22.7649    3.4500 H         1 UNK         0.0888 
     74 H74        26.0895   23.3431    2.4482 H         1 UNK         0.0888 
     75 H75        29.1946   22.3649    2.1270 H         1 UNK         0.3017 
     76 H76        29.0265   20.5394   -0.1095 H         1 UNK         0.0873 
     77 H77        31.4512   20.7315   -0.2495 H         1 UNK         0.0745 
     78 H78        31.4684   22.1563    0.7501 H         1 UNK         0.0745 
     79 H79        33.4810   20.5557    2.2561 H         1 UNK         0.0705 
     80 H80        32.7586   20.2798    3.8228 H         1 UNK         0.0705 
     81 H81        34.6853   22.5605    2.7595 H         1 UNK         0.1334 
     82 H82        32.5367   26.1530    3.6809 H         1 UNK         0.1417 
     83 H83        30.4916   22.3891    3.6505 H         1 UNK         0.1562 
     84 H84        30.2479   26.0295    4.4280 H         1 UNK         0.0748 
     85 H85        29.4808   24.4788    4.6988 H         1 UNK         0.0748 
     86 H86        27.6274   26.1010    4.1439 H         1 UNK         0.0940 
     87 H87        26.7802   25.8858    2.6450 H         1 UNK         0.0940 
     88 H88        28.9737   27.9618    2.6259 H         1 UNK         0.0703 
     89 H89        26.7559   27.4125    0.9734 H         1 UNK         0.3081 
     90 H90        25.5647   29.9588   -0.0874 H         1 UNK         0.0719 
     91 H91        28.2135   30.4928   -1.5289 H         1 UNK         0.0809 
     92 H92        26.6222   30.8784   -2.1857 H         1 UNK         0.0809 
     93 H93        27.1823   31.6734   -0.7280 H         1 UNK         0.0809 
     94 H94        27.2606   28.0595   -1.6557 H         1 UNK         0.2990 
     95 H95        24.7074   25.7116   -1.8823 H         1 UNK         0.0690 
     96 H96        24.8530   25.8966   -4.3550 H         1 UNK         0.0788 
     97 H97        25.5205   27.5248   -4.2208 H         1 UNK         0.0788 
     98 H98        23.8706   27.1991   -3.7087 H         1 UNK         0.0788 
     99 H99        27.1726   25.9100   -3.2901 H         1 UNK         0.2993 
    100 H100       28.8205   24.4163   -2.6552 H         1 UNK         0.0949 
    101 H101       29.6282   26.7347   -2.1647 H         1 UNK         0.0767 
    102 H102       29.7484   26.3600   -0.4496 H         1 UNK         0.0767 
    103 H103       30.8150   25.5678   -1.6056 H         1 UNK         0.0767 
    104 H104       28.8583   23.9753    0.2892 H         1 UNK         0.3013 
    105 H105       29.2913   29.2138    4.2512 H         1 UNK         0.3121 
    106 H106       29.1631   30.4742    6.0241 H         1 UNK         0.0774 
    107 H107       27.3086   30.4659    7.6375 H         1 UNK         0.0815 
    108 H108       26.2557   29.6356    6.5073 H         1 UNK         0.0815 
    109 H109       27.6750   28.8159    7.1602 H         1 UNK         0.0815 
    110 H110       26.7164   30.8619    3.5686 H         1 UNK         0.2987 
    111 H111       26.0737   33.6299    4.1283 H         1 UNK         0.0949 
    112 H112       25.0191   33.5492    1.8757 H         1 UNK         0.0806 
    113 H113       25.7555   31.9870    1.5553 H         1 UNK         0.0806 
    114 H114       24.5446   32.1507    2.8264 H         1 UNK         0.0806 
    115 H115       28.4368   31.9547    2.0569 H         1 UNK         0.3010 
    116 H116       30.1136   34.3702    1.9749 H         1 UNK         0.0829 
    117 H117       28.7099   34.6300   -0.0775 H         1 UNK         0.0813 
    118 H118       30.3809   34.2914   -0.4975 H         1 UNK         0.0813 
    119 H119       29.1772   33.0169   -0.6157 H         1 UNK         0.0813 
    120 H120       29.7064   30.8777    1.2201 H         1 UNK         0.3038 
    121 H121       32.6140   30.4858    0.9779 H         1 UNK         0.0769 
    122 H122       30.2760   28.5098    0.8608 H         1 UNK         0.0811 
    123 H123       31.9584   28.1213    0.5522 H         1 UNK         0.0811 
    124 H124       31.1034   29.2199   -0.5192 H         1 UNK         0.0811 
    125 H125       33.9155   29.8831    2.6301 H         1 UNK         0.3204 
    126 H126       33.0781   28.3328    4.8804 H         1 UNK         0.0748 
    127 H127       33.7137   30.0663    6.6064 H         1 UNK         0.0771 
    128 H128       33.8671   31.2778    5.3400 H         1 UNK         0.0771 
    129 H129       32.2948   30.5726    5.7078 H         1 UNK         0.0771 
    130 H130       34.9775   27.6998    6.1158 H         1 UNK         0.2980 
    131 H131       37.6231   28.4064    5.1504 H         1 UNK         0.0545 
    132 H132       37.1425   27.4971    8.8718 H         1 UNK         0.3459 
    133 H133       35.9776   28.2804    7.8409 H         1 UNK         0.3459 
    134 H134       38.2401   26.0413    4.5207 H         1 UNK         0.0616 
    135 H135       37.1543   26.8225    3.4218 H         1 UNK         0.0616 
    136 H136       35.6145   24.9010    2.2530 H         1 UNK         0.0634 
    137 H137       34.8194   26.2873    2.9623 H         1 UNK         0.0634 
@<TRIPOS>BOND
     1    1    2 1    
     2    1   72 1    
     3    1   73 1    
     4    1   74 1    
     5    2    3 2    
     6    2    4 am   BACKBONE|DICT|INTERRES
     7    4    5 1    
     8    4   75 1    
     9    5    6 1    
    10    5   35 1    
    11    5   76 1    
    12    6    7 1    
    13    6   77 1    
    14    6   78 1    
    15    7    8 1    
    16    8    9 1    
    17    8   79 1    
    18    8   80 1    
    19    9   10 ar   
    20    9   14 ar   
    21   10   11 ar   
    22   10   81 1    
    23   11   12 ar   
    24   11   71 1    
    25   12   13 ar   
    26   12   82 1    
    27   13   14 ar   
    28   13   15 1    
    29   14   83 1    
    30   15   16 1    
    31   15   84 1    
    32   15   85 1    
    33   16   17 1    
    34   17   18 1    
    35   17   86 1    
    36   17   87 1    
    37   18   19 1    
    38   18   37 1    
    39   18   88 1    
    40   19   20 am   BACKBONE|DICT|INTERRES
    41   19   89 1    
    42   20   21 2    
    43   20   22 1    
    44   22   23 1    
    45   22   24 1    
    46   22   90 1    
    47   23   91 1    
    48   23   92 1    
    49   23   93 1    
    50   24   25 am   BACKBONE|DICT|INTERRES
    51   24   94 1    
    52   25   26 2    
    53   25   27 1    
    54   27   28 1    
    55   27   29 1    
    56   27   95 1    
    57   28   96 1    
    58   28   97 1    
    59   28   98 1    
    60   29   30 am   BACKBONE|DICT|INTERRES
    61   29   99 1    
    62   30   31 2    
    63   30   32 1    
    64   32   33 1    
    65   32   34 1    
    66   32  100 1    
    67   33  101 1    
    68   33  102 1    
    69   33  103 1    
    70   34   35 am   BACKBONE|DICT|INTERRES
    71   34  104 1    
    72   35   36 2    
    73   37   38 2    
    74   37   39 am   BACKBONE|DICT|INTERRES
    75   39   40 1    
    76   39  105 1    
    77   40   41 1    
    78   40   42 1    
    79   40  106 1    
    80   41  107 1    
    81   41  108 1    
    82   41  109 1    
    83   42   43 2    
    84   42   44 am   BACKBONE|DICT|INTERRES
    85   44   45 1    
    86   44  110 1    
    87   45   46 1    
    88   45   47 1    
    89   45  111 1    
    90   46  112 1    
    91   46  113 1    
    92   46  114 1    
    93   47   48 2    
    94   47   49 am   BACKBONE|DICT|INTERRES
    95   49   50 1    
    96   49  115 1    
    97   50   51 1    
    98   50   52 1    
    99   50  116 1    
   100   51  117 1    
   101   51  118 1    
   102   51  119 1    
   103   52   53 2    
   104   52   54 am   BACKBONE|DICT|INTERRES
   105   54   55 1    
   106   54  120 1    
   107   55   56 1    
   108   55   57 1    
   109   55  121 1    
   110   56  122 1    
   111   56  123 1    
   112   56  124 1    
   113   57   58 2    
   114   57   59 am   BACKBONE|DICT|INTERRES
   115   59   60 1    
   116   59  125 1    
   117   60   61 1    
   118   60   62 1    
   119   60  126 1    
   120   61  127 1    
   121   61  128 1    
   122   61  129 1    
   123   62   63 2    
   124   62   64 am   BACKBONE|DICT|INTERRES
   125   64   65 1    
   126   64  130 1    
   127   65   66 1    
   128   65   69 1    
   129   65  131 1    
   130   66   67 am   BACKBONE|DICT|INTERRES
   131   66   68 2    
   132   67  132 1    
   133   67  133 1    
   134   69   70 1    
   135   69  134 1    
   136   69  135 1    
   137   70   71 1    
   138   71  136 1    
   139   71  137 1    
@<TRIPOS>SUBSTRUCTURE
     1 UNK         1 GROUP             0       ****    0 ROOT    
