@<TRIPOS>MOLECULE
3R136
137   139    1
SMALL
USER_CHARGES


@<TRIPOS>ATOM
      1 CA         30.0986   27.6741   -2.0051 C.3       0 UNK        -0.1979 
      2 C          30.2469   26.1589   -1.9898 C.2       0 UNK         0.4864 
      3 O          31.2562   25.6445   -2.4736 O.2       0 UNK        -0.5359 
      4 N          29.2503   25.4692   -1.4187 N.am      1 UNK        -0.4318 
      5 CA         29.1145   24.0215   -1.2090 C.3       1 UNK         0.0824 
      6 C6         30.3075   23.3765   -0.4519 C.3       12 UNK        -0.0944 
      7 S7         30.6185   24.2074    1.1413 S.3       12 UNK        -0.2672 
      8 C8         29.9840   22.9984    2.3419 C.3       12 UNK         0.0333 
      9 C9         29.9418   23.6252    3.7260 C.ar      12 UNK        -0.0807 
     10 C10        31.1325   23.9345    4.3871 C.ar      12 UNK        -0.0894 
     11 C11        31.1123   24.5996    5.6152 C.ar      12 UNK        -0.0804 
     12 C12        29.8866   24.9473    6.1898 C.ar      12 UNK        -0.0824 
     13 C13        28.6849   24.6236    5.5494 C.ar      12 UNK        -0.0762 
     14 C14        28.7208   23.9428    4.3266 C.ar      12 UNK        -0.0782 
     15 C15        27.3565   25.0215    6.1872 C.3       12 UNK         0.0230 
     16 S16        26.1694   25.7706    5.0174 S.3       12 UNK        -0.2608 
     17 C17        27.1434   27.1283    4.2798 C.3       12 UNK        -0.0989 
     18 CA         27.4106   26.8951    2.7701 C.3       5 UNK         0.0716 
     19 N          26.1591   26.8193    2.0096 N.am      5 UNK        -0.4135 
     20 C          26.0618   26.5043    0.7144 C.2       4 UNK         0.5031 
     21 O          27.0265   26.2918   -0.0234 O.2       4 UNK        -0.5229 
     22 CA         24.6508   26.3905    0.1350 C.3       4 UNK         0.0329 
     23 CB         24.2009   27.7180   -0.4985 C.3       4 UNK        -0.2001 
     24 N          24.6826   25.3382   -0.8749 N.am      4 UNK        -0.4303 
     25 C          23.6691   24.5300   -1.1972 C.2       3 UNK         0.5044 
     26 O          22.5331   24.6343   -0.7324 O.2       3 UNK        -0.5152 
     27 CA         23.9695   23.4080   -2.2083 C.3       3 UNK         0.0319 
     28 CB         23.6668   23.8835   -3.6387 C.3       3 UNK        -0.2001 
     29 N          25.3414   22.8848   -2.1543 N.am      3 UNK        -0.4354 
     30 C          25.8700   22.2060   -1.1232 C.2       2 UNK         0.4964 
     31 O          25.2836   22.0208   -0.0573 O.2       2 UNK        -0.5047 
     32 CA         27.2792   21.6075   -1.3068 C.3       2 UNK         0.0288 
     33 CB         27.1808   20.0836   -1.4879 C.3       2 UNK        -0.2113 
     34 N          27.9953   22.1653   -2.4619 N.am      2 UNK        -0.4145 
     35 C          28.7734   23.2586   -2.5132 C.2       1 UNK         0.5006 
     36 O          29.2261   23.6451   -3.5907 O.2       1 UNK        -0.5103 
     37 C          28.3554   27.9830    2.2282 C.2       5 UNK         0.5055 
     38 O          27.8960   29.0735    1.8804 O.2       5 UNK        -0.5220 
     39 N          29.6655   27.7020    2.2456 N.am      6 UNK        -0.4450 
     40 CA         30.7435   28.6302    1.8816 C.3       6 UNK         0.0367 
     41 CB         31.9965   27.8148    1.5101 C.3       6 UNK        -0.1929 
     42 C          31.0347   29.6681    2.9877 C.2       6 UNK         0.5070 
     43 O          32.2001   29.9354    3.2912 O.2       6 UNK        -0.5237 
     44 N          29.9758   30.2220    3.5908 N.am      7 UNK        -0.4739 
     45 CA         30.0209   31.2063    4.6705 C.3       7 UNK         0.0276 
     46 CB         28.5943   31.4670    5.1777 C.3       7 UNK        -0.1927 
     47 C          30.6852   32.5102    4.2064 C.2       7 UNK         0.5013 
     48 O          30.3352   33.0193    3.1395 O.2       7 UNK        -0.5193 
     49 N          31.6616   32.9914    4.9859 N.am      8 UNK        -0.4253 
     50 CA         32.5450   34.1435    4.7490 C.3       8 UNK         0.0242 
     51 CB         31.7523   35.4518    4.5575 C.3       8 UNK        -0.2000 
     52 C          33.5677   33.9335    3.6155 C.2       8 UNK         0.4948 
     53 O          34.6750   34.4638    3.7111 O.2       8 UNK        -0.5275 
     54 N          33.2074   33.1545    2.5864 N.am      9 UNK        -0.4246 
     55 CA         34.0834   32.7259    1.4948 C.3       9 UNK         0.0261 
     56 CB         33.2452   32.0415    0.4023 C.3       9 UNK        -0.1959 
     57 C          35.2129   31.7983    1.9743 C.2       9 UNK         0.5033 
     58 O          36.3426   31.9335    1.5012 O.2       9 UNK        -0.5390 
     59 N          34.8946   30.8939    2.9090 N.am      10 UNK        -0.4215 
     60 CA         35.8471   29.9828    3.5429 C.3       10 UNK         0.0240 
     61 CB         35.9974   28.7017    2.7017 C.3       10 UNK        -0.1982 
     62 C          35.4394   29.6470    4.9830 C.2       10 UNK         0.4970 
     63 O          36.2957   29.6611    5.8683 O.2       10 UNK        -0.4916 
     64 N          34.1566   29.3331    5.1881 N.am      11 UNK        -0.4279 
     65 CA         33.5872   28.8861    6.4657 C.3       11 UNK         0.1003 
     66 C          33.0338   30.0660    7.3076 C.2       11 UNK         0.5709 
     67 N          32.7852   29.8447    8.5908 N.am      11 UNK        -0.7358 
     68 O          32.8079   31.1714    6.8177 O.2       11 UNK        -0.4999 
     69 C69        32.5169   27.7870    6.2277 C.3       12 UNK        -0.0954 
     70 S70        33.2689   26.3127    5.4559 S.3       12 UNK        -0.2268 
     71 C71        32.4235   24.9433    6.3031 C.3       12 UNK         0.0203 
     72 H72        30.9895   28.1436   -1.5888 H         1 UNK         0.0888 
     73 H73        29.9712   28.0286   -3.0275 H         1 UNK         0.0888 
     74 H74        29.2400   28.0037   -1.4191 H         1 UNK         0.0888 
     75 H75        28.4670   25.9885   -1.0231 H         1 UNK         0.3017 
     76 H76        28.2447   23.9582   -0.5571 H         1 UNK         0.0873 
     77 H77        31.2192   23.4289   -1.0489 H         1 UNK         0.0745 
     78 H78        30.1336   22.3144   -0.2732 H         1 UNK         0.0745 
     79 H79        30.6260   22.1163    2.3512 H         1 UNK         0.0705 
     80 H80        28.9906   22.6668    2.0354 H         1 UNK         0.0705 
     81 H81        32.0800   23.6898    3.9260 H         1 UNK         0.1334 
     82 H82        29.8703   25.4716    7.1357 H         1 UNK         0.1417 
     83 H83        27.7953   23.6963    3.8240 H         1 UNK         0.1562 
     84 H84        27.5189   25.7255    7.0051 H         1 UNK         0.0748 
     85 H85        26.9009   24.1351    6.6302 H         1 UNK         0.0748 
     86 H86        28.0807   27.2393    4.8292 H         1 UNK         0.0940 
     87 H87        26.5990   28.0624    4.4332 H         1 UNK         0.0940 
     88 H88        27.9129   25.9351    2.6424 H         1 UNK         0.0703 
     89 H89        25.3161   26.9940    2.5360 H         1 UNK         0.3081 
     90 H90        23.9618   26.1106    0.9351 H         1 UNK         0.0719 
     91 H91        24.1848   28.5191    0.2415 H         1 UNK         0.0809 
     92 H92        24.8712   28.0276   -1.3015 H         1 UNK         0.0809 
     93 H93        23.1959   27.6387   -0.9133 H         1 UNK         0.0809 
     94 H94        25.5976   25.1708   -1.2720 H         1 UNK         0.2990 
     95 H95        23.2950   22.5802   -1.9785 H         1 UNK         0.0690 
     96 H96        24.3313   24.6925   -3.9451 H         1 UNK         0.0788 
     97 H97        22.6439   24.2548   -3.7185 H         1 UNK         0.0788 
     98 H98        23.7703   23.0712   -4.3584 H         1 UNK         0.0788 
     99 H99        25.8944   22.9876   -2.9928 H         1 UNK         0.2993 
    100 H100       27.8348   21.7819   -0.3850 H         1 UNK         0.0949 
    101 H101       26.6170   19.8163   -2.3828 H         1 UNK         0.0767 
    102 H102       28.1689   19.6291   -1.5656 H         1 UNK         0.0767 
    103 H103       26.6800   19.6190   -0.6370 H         1 UNK         0.0767 
    104 H104       27.8406   21.6768   -3.3322 H         1 UNK         0.3013 
    105 H105       29.9612   26.7916    2.5715 H         1 UNK         0.3121 
    106 H106       30.4350   29.1900    0.9962 H         1 UNK         0.0774 
    107 H107       32.8002   28.4645    1.1610 H         1 UNK         0.0815 
    108 H108       32.3781   27.2530    2.3640 H         1 UNK         0.0815 
    109 H109       31.7879   27.1050    0.7098 H         1 UNK         0.0815 
    110 H110       29.0622   30.0002    3.2097 H         1 UNK         0.2987 
    111 H111       30.6010   30.7729    5.4860 H         1 UNK         0.0949 
    112 H112       28.5981   32.1826    6.0010 H         1 UNK         0.0806 
    113 H113       27.9563   31.8755    4.3927 H         1 UNK         0.0806 
    114 H114       28.1299   30.5520    5.5459 H         1 UNK         0.0806 
    115 H115       31.9356   32.4222    5.7861 H         1 UNK         0.3010 
    116 H116       33.1267   34.2474    5.6666 H         1 UNK         0.0829 
    117 H117       31.0592   35.6203    5.3817 H         1 UNK         0.0813 
    118 H118       32.4258   36.3090    4.5197 H         1 UNK         0.0813 
    119 H119       31.1795   35.4537    3.6299 H         1 UNK         0.0813 
    120 H120       32.2503   32.8177    2.5749 H         1 UNK         0.3038 
    121 H121       34.5438   33.6185    1.0660 H         1 UNK         0.0769 
    122 H122       32.4828   32.7135    0.0077 H         1 UNK         0.0811 
    123 H123       33.8731   31.7365   -0.4359 H         1 UNK         0.0811 
    124 H124       32.7438   31.1479    0.7751 H         1 UNK         0.0811 
    125 H125       33.9243   30.8219    3.2037 H         1 UNK         0.3204 
    126 H126       36.8212   30.4740    3.5993 H         1 UNK         0.0748 
    127 H127       36.3810   28.9236    1.7057 H         1 UNK         0.0771 
    128 H128       36.6947   28.0058    3.1701 H         1 UNK         0.0771 
    129 H129       35.0451   28.1825    2.5857 H         1 UNK         0.0771 
    130 H130       33.4907   29.3977    4.4225 H         1 UNK         0.2980 
    131 H131       34.3869   28.4406    7.0611 H         1 UNK         0.0545 
    132 H132       32.4213   30.5975    9.1535 H         1 UNK         0.3459 
    133 H133       32.9641   28.9465    9.0117 H         1 UNK         0.3459 
    134 H134       32.0478   27.4958    7.1686 H         1 UNK         0.0616 
    135 H135       31.7147   28.1513    5.5839 H         1 UNK         0.0616 
    136 H136       32.2711   25.1821    7.3565 H         1 UNK         0.0634 
    137 H137       33.0749   24.0684    6.2826 H         1 UNK         0.0634 
@<TRIPOS>BOND
     1    1    2 1    
     2    1   72 1    
     3    1   73 1    
     4    1   74 1    
     5    2    3 2    
     6    2    4 am   BACKBONE|DICT|INTERRES
     7    4    5 1    
     8    4   75 1    
     9    5    6 1    
    10    5   35 1    
    11    5   76 1    
    12    6    7 1    
    13    6   77 1    
    14    6   78 1    
    15    7    8 1    
    16    8    9 1    
    17    8   79 1    
    18    8   80 1    
    19    9   10 ar   
    20    9   14 ar   
    21   10   11 ar   
    22   10   81 1    
    23   11   12 ar   
    24   11   71 1    
    25   12   13 ar   
    26   12   82 1    
    27   13   14 ar   
    28   13   15 1    
    29   14   83 1    
    30   15   16 1    
    31   15   84 1    
    32   15   85 1    
    33   16   17 1    
    34   17   18 1    
    35   17   86 1    
    36   17   87 1    
    37   18   19 1    
    38   18   37 1    
    39   18   88 1    
    40   19   20 am   BACKBONE|DICT|INTERRES
    41   19   89 1    
    42   20   21 2    
    43   20   22 1    
    44   22   23 1    
    45   22   24 1    
    46   22   90 1    
    47   23   91 1    
    48   23   92 1    
    49   23   93 1    
    50   24   25 am   BACKBONE|DICT|INTERRES
    51   24   94 1    
    52   25   26 2    
    53   25   27 1    
    54   27   28 1    
    55   27   29 1    
    56   27   95 1    
    57   28   96 1    
    58   28   97 1    
    59   28   98 1    
    60   29   30 am   BACKBONE|DICT|INTERRES
    61   29   99 1    
    62   30   31 2    
    63   30   32 1    
    64   32   33 1    
    65   32   34 1    
    66   32  100 1    
    67   33  101 1    
    68   33  102 1    
    69   33  103 1    
    70   34   35 am   BACKBONE|DICT|INTERRES
    71   34  104 1    
    72   35   36 2    
    73   37   38 2    
    74   37   39 am   BACKBONE|DICT|INTERRES
    75   39   40 1    
    76   39  105 1    
    77   40   41 1    
    78   40   42 1    
    79   40  106 1    
    80   41  107 1    
    81   41  108 1    
    82   41  109 1    
    83   42   43 2    
    84   42   44 am   BACKBONE|DICT|INTERRES
    85   44   45 1    
    86   44  110 1    
    87   45   46 1    
    88   45   47 1    
    89   45  111 1    
    90   46  112 1    
    91   46  113 1    
    92   46  114 1    
    93   47   48 2    
    94   47   49 am   BACKBONE|DICT|INTERRES
    95   49   50 1    
    96   49  115 1    
    97   50   51 1    
    98   50   52 1    
    99   50  116 1    
   100   51  117 1    
   101   51  118 1    
   102   51  119 1    
   103   52   53 2    
   104   52   54 am   BACKBONE|DICT|INTERRES
   105   54   55 1    
   106   54  120 1    
   107   55   56 1    
   108   55   57 1    
   109   55  121 1    
   110   56  122 1    
   111   56  123 1    
   112   56  124 1    
   113   57   58 2    
   114   57   59 am   BACKBONE|DICT|INTERRES
   115   59   60 1    
   116   59  125 1    
   117   60   61 1    
   118   60   62 1    
   119   60  126 1    
   120   61  127 1    
   121   61  128 1    
   122   61  129 1    
   123   62   63 2    
   124   62   64 am   BACKBONE|DICT|INTERRES
   125   64   65 1    
   126   64  130 1    
   127   65   66 1    
   128   65   69 1    
   129   65  131 1    
   130   66   67 am   BACKBONE|DICT|INTERRES
   131   66   68 2    
   132   67  132 1    
   133   67  133 1    
   134   69   70 1    
   135   69  134 1    
   136   69  135 1    
   137   70   71 1    
   138   71  136 1    
   139   71  137 1    
@<TRIPOS>SUBSTRUCTURE
     1 UNK         1 GROUP             0       ****    0 ROOT    
