@<TRIPOS>MOLECULE
3R136
137   139    1
SMALL
USER_CHARGES


@<TRIPOS>ATOM
      1 CA         33.6185   22.8862   -2.7001 C.3       0 UNK        -0.1979 
      2 C          32.5060   23.5524   -1.9050 C.2       0 UNK         0.4864 
      3 O          32.3045   24.7612   -2.0277 O.2       0 UNK        -0.5359 
      4 N          31.7667   22.7721   -1.1055 N.am      1 UNK        -0.4318 
      5 CA         30.6829   23.2094   -0.2100 C.3       1 UNK         0.0824 
      6 C6         30.4393   22.1817    0.9328 C.3       12 UNK        -0.0944 
      7 S7         31.9747   21.6323    1.7557 S.3       12 UNK        -0.2672 
      8 C8         31.4005   21.2824    3.4520 C.3       12 UNK         0.0333 
      9 C9         31.3000   22.5080    4.3588 C.ar      12 UNK        -0.0807 
     10 C10        32.1746   23.5942    4.2292 C.ar      12 UNK        -0.0894 
     11 C11        32.0965   24.6809    5.1034 C.ar      12 UNK        -0.0804 
     12 C12        31.1576   24.6682    6.1372 C.ar      12 UNK        -0.0824 
     13 C13        30.2694   23.5991    6.2729 C.ar      12 UNK        -0.0762 
     14 C14        30.3455   22.5238    5.3816 C.ar      12 UNK        -0.0782 
     15 C15        29.2302   23.6012    7.3830 C.3       12 UNK         0.0230 
     16 S16        27.7156   24.4755    6.8767 S.3       12 UNK        -0.2608 
     17 C17        28.1416   26.2235    7.2042 C.3       12 UNK        -0.0989 
     18 CA         28.4324   27.0542    5.9259 C.3       5 UNK         0.0716 
     19 N          27.3665   26.8938    4.9283 N.am      5 UNK        -0.4135 
     20 C          27.3143   27.4381    3.7074 C.2       4 UNK         0.5031 
     21 O          28.0896   28.3037    3.2911 O.2       4 UNK        -0.5229 
     22 CA         26.1645   26.9572    2.8189 C.3       4 UNK         0.0329 
     23 CB         24.8249   27.5842    3.2489 C.3       4 UNK        -0.2001 
     24 N          26.4664   27.3160    1.4387 N.am      4 UNK        -0.4303 
     25 C          26.0303   26.6713    0.3529 C.2       3 UNK         0.5044 
     26 O          25.2781   25.6963    0.3941 O.2       3 UNK        -0.5152 
     27 CA         26.4971   27.1930   -1.0135 C.3       3 UNK         0.0319 
     28 CB         27.0766   28.6219   -0.9917 C.3       3 UNK        -0.2001 
     29 N          27.5000   26.2744   -1.5461 N.am      3 UNK        -0.4354 
     30 C          27.3177   25.4869   -2.6135 C.2       2 UNK         0.4964 
     31 O          26.2762   25.4548   -3.2716 O.2       2 UNK        -0.5047 
     32 CA         28.4907   24.6007   -3.0635 C.3       2 UNK         0.0288 
     33 CB         29.1778   25.2103   -4.2973 C.3       2 UNK        -0.2113 
     34 N          29.5071   24.3545   -2.0403 N.am      2 UNK        -0.4145 
     35 C          29.3870   23.5136   -1.0057 C.2       1 UNK         0.5006 
     36 O          28.3315   22.9434   -0.7213 O.2       1 UNK        -0.5103 
     37 C          28.7531   28.5135    6.3243 C.2       5 UNK         0.5055 
     38 O          29.8539   28.7673    6.8149 O.2       5 UNK        -0.5220 
     39 N          27.7926   29.4301    6.1462 N.am      6 UNK        -0.4450 
     40 CA         27.9142   30.8527    6.4716 C.3       6 UNK         0.0367 
     41 CB         26.9856   31.1679    7.6594 C.3       6 UNK        -0.1929 
     42 C          27.6140   31.7600    5.2642 C.2       6 UNK         0.5070 
     43 O          27.4636   32.9677    5.4547 O.2       6 UNK        -0.5237 
     44 N          27.5135   31.1953    4.0500 N.am      7 UNK        -0.4739 
     45 CA         27.2085   31.9535    2.8292 C.3       7 UNK         0.0276 
     46 CB         26.7405   30.9906    1.7290 C.3       7 UNK        -0.1927 
     47 C          28.3980   32.7880    2.3261 C.2       7 UNK         0.5013 
     48 O          28.1929   33.8736    1.7818 O.2       7 UNK        -0.5193 
     49 N          29.6112   32.2620    2.5155 N.am      8 UNK        -0.4253 
     50 CA         30.8915   32.8452    2.1310 C.3       8 UNK         0.0242 
     51 CB         31.0823   32.7574    0.6032 C.3       8 UNK        -0.2000 
     52 C          31.9845   32.0551    2.8551 C.2       8 UNK         0.4948 
     53 O          31.7269   30.9281    3.2835 O.2       8 UNK        -0.5275 
     54 N          33.1966   32.6203    2.9330 N.am      9 UNK        -0.4246 
     55 CA         34.3690   31.9898    3.5583 C.3       9 UNK         0.0261 
     56 CB         35.5305   32.9966    3.5949 C.3       9 UNK        -0.1959 
     57 C          34.8149   30.6765    2.8841 C.2       9 UNK         0.5033 
     58 O          35.3759   29.8117    3.5577 O.2       9 UNK        -0.5390 
     59 N          34.5460   30.5481    1.5776 N.am      10 UNK        -0.4215 
     60 CA         34.7682   29.3326    0.7912 C.3       10 UNK         0.0240 
     61 CB         34.9445   29.7264   -0.6856 C.3       10 UNK        -0.1982 
     62 C          33.6383   28.2932    0.9373 C.2       10 UNK         0.4970 
     63 O          33.8328   27.1533    0.5159 O.2       10 UNK        -0.4916 
     64 N          32.4877   28.6972    1.4971 N.am      11 UNK        -0.4279 
     65 CA         31.2717   27.8863    1.6924 C.3       11 UNK         0.1003 
     66 C          30.5648   27.4347    0.3776 C.2       11 UNK         0.5709 
     67 N          30.8433   28.0538   -0.7639 N.am      11 UNK        -0.7358 
     68 O          29.7168   26.5453    0.3881 O.2       11 UNK        -0.4999 
     69 C69        31.4709   26.7279    2.7086 C.3       12 UNK        -0.0954 
     70 S70        32.0911   27.3272    4.3186 S.3       12 UNK        -0.2268 
     71 C71        33.0131   25.8799    4.9194 C.3       12 UNK         0.0203 
     72 H72        33.6853   21.8184   -2.4923 H         1 UNK         0.0888 
     73 H73        33.4449   23.0148   -3.7681 H         1 UNK         0.0888 
     74 H74        34.5778   23.3403   -2.4530 H         1 UNK         0.0888 
     75 H75        31.9758   21.7850   -1.0593 H         1 UNK         0.3017 
     76 H76        30.9951   24.1465    0.2561 H         1 UNK         0.0873 
     77 H77        29.7693   22.6123    1.6798 H         1 UNK         0.0745 
     78 H78        29.9420   21.2873    0.5521 H         1 UNK         0.0745 
     79 H79        32.1013   20.5833    3.9099 H         1 UNK         0.0705 
     80 H80        30.4417   20.7640    3.3976 H         1 UNK         0.0705 
     81 H81        32.9198   23.6007    3.4463 H         1 UNK         0.1334 
     82 H82        31.1035   25.5068    6.8179 H         1 UNK         0.1417 
     83 H83        29.6651   21.6901    5.4937 H         1 UNK         0.1562 
     84 H84        29.6396   24.0432    8.2926 H         1 UNK         0.0748 
     85 H85        28.9663   22.5750    7.6438 H         1 UNK         0.0748 
     86 H86        28.9910   26.2668    7.8885 H         1 UNK         0.0940 
     87 H87        27.3037   26.6599    7.7521 H         1 UNK         0.0940 
     88 H88        29.3357   26.6602    5.4590 H         1 UNK         0.0703 
     89 H89        26.6717   26.2016    5.1706 H         1 UNK         0.3081 
     90 H90        26.1050   25.8696    2.9015 H         1 UNK         0.0719 
     91 H91        24.5599   27.2916    4.2655 H         1 UNK         0.0809 
     92 H92        24.0097   27.2608    2.6014 H         1 UNK         0.0809 
     93 H93        24.8587   28.6733    3.2224 H         1 UNK         0.0809 
     94 H94        27.1542   28.0520    1.3448 H         1 UNK         0.2990 
     95 H95        25.6115   27.2155   -1.6518 H         1 UNK         0.0690 
     96 H96        27.3367   28.9494   -1.9984 H         1 UNK         0.0788 
     97 H97        27.9764   28.7006   -0.3828 H         1 UNK         0.0788 
     98 H98        26.3434   29.3319   -0.6082 H         1 UNK         0.0788 
     99 H99        28.3602   26.1952   -1.0105 H         1 UNK         0.2993 
    100 H100       28.0669   23.6364   -3.3529 H         1 UNK         0.0949 
    101 H101       28.4618   25.3778   -5.1032 H         1 UNK         0.0767 
    102 H102       29.6410   26.1705   -4.0663 H         1 UNK         0.0767 
    103 H103       29.9526   24.5494   -4.6868 H         1 UNK         0.0767 
    104 H104       30.4284   24.7603   -2.1909 H         1 UNK         0.3013 
    105 H105       26.9140   29.1335    5.7459 H         1 UNK         0.3121 
    106 H106       28.9376   31.0875    6.7714 H         1 UNK         0.0774 
    107 H107       27.0871   32.2068    7.9760 H         1 UNK         0.0815 
    108 H108       25.9376   31.0041    7.4060 H         1 UNK         0.0815 
    109 H109       27.2233   30.5463    8.5228 H         1 UNK         0.0815 
    110 H110       27.7103   30.2053    3.9399 H         1 UNK         0.2987 
    111 H111       26.3900   32.6441    3.0452 H         1 UNK         0.0949 
    112 H112       25.8494   30.4421    2.0304 H         1 UNK         0.0806 
    113 H113       26.4913   31.5336    0.8162 H         1 UNK         0.0806 
    114 H114       27.5178   30.2695    1.4776 H         1 UNK         0.0806 
    115 H115       29.7008   31.3800    3.0074 H         1 UNK         0.3010 
    116 H116       30.9253   33.8860    2.4596 H         1 UNK         0.0829 
    117 H117       30.3151   33.3203    0.0715 H         1 UNK         0.0813 
    118 H118       32.0451   33.1696    0.2993 H         1 UNK         0.0813 
    119 H119       31.0400   31.7257    0.2510 H         1 UNK         0.0813 
    120 H120       33.3294   33.5471    2.5526 H         1 UNK         0.3038 
    121 H121       34.0980   31.7447    4.5876 H         1 UNK         0.0769 
    122 H122       35.8307   33.3054    2.5928 H         1 UNK         0.0811 
    123 H123       36.4074   32.5628    4.0781 H         1 UNK         0.0811 
    124 H124       35.2640   33.8913    4.1579 H         1 UNK         0.0811 
    125 H125       34.1095   31.3251    1.1038 H         1 UNK         0.3204 
    126 H126       35.6918   28.8571    1.1286 H         1 UNK         0.0748 
    127 H127       35.1437   28.8493   -1.3033 H         1 UNK         0.0771 
    128 H128       34.0529   30.2106   -1.0860 H         1 UNK         0.0771 
    129 H129       35.7851   30.4082   -0.8164 H         1 UNK         0.0771 
    130 H130       32.4353   29.6246    1.9010 H         1 UNK         0.2980 
    131 H131       30.5560   28.5735    2.1443 H         1 UNK         0.0545 
    132 H132       31.5341   28.7845   -0.7893 H         1 UNK         0.3459 
    133 H133       30.3868   27.7649   -1.6123 H         1 UNK         0.3459 
    134 H134       32.1558   25.9805    2.3057 H         1 UNK         0.0616 
    135 H135       30.5270   26.2125    2.8958 H         1 UNK         0.0616 
    136 H136       33.4831   26.1288    5.8717 H         1 UNK         0.0634 
    137 H137       33.8224   25.6555    4.2228 H         1 UNK         0.0634 
@<TRIPOS>BOND
     1    1    2 1    
     2    1   72 1    
     3    1   73 1    
     4    1   74 1    
     5    2    3 2    
     6    2    4 am   BACKBONE|DICT|INTERRES
     7    4    5 1    
     8    4   75 1    
     9    5    6 1    
    10    5   35 1    
    11    5   76 1    
    12    6    7 1    
    13    6   77 1    
    14    6   78 1    
    15    7    8 1    
    16    8    9 1    
    17    8   79 1    
    18    8   80 1    
    19    9   10 ar   
    20    9   14 ar   
    21   10   11 ar   
    22   10   81 1    
    23   11   12 ar   
    24   11   71 1    
    25   12   13 ar   
    26   12   82 1    
    27   13   14 ar   
    28   13   15 1    
    29   14   83 1    
    30   15   16 1    
    31   15   84 1    
    32   15   85 1    
    33   16   17 1    
    34   17   18 1    
    35   17   86 1    
    36   17   87 1    
    37   18   19 1    
    38   18   37 1    
    39   18   88 1    
    40   19   20 am   BACKBONE|DICT|INTERRES
    41   19   89 1    
    42   20   21 2    
    43   20   22 1    
    44   22   23 1    
    45   22   24 1    
    46   22   90 1    
    47   23   91 1    
    48   23   92 1    
    49   23   93 1    
    50   24   25 am   BACKBONE|DICT|INTERRES
    51   24   94 1    
    52   25   26 2    
    53   25   27 1    
    54   27   28 1    
    55   27   29 1    
    56   27   95 1    
    57   28   96 1    
    58   28   97 1    
    59   28   98 1    
    60   29   30 am   BACKBONE|DICT|INTERRES
    61   29   99 1    
    62   30   31 2    
    63   30   32 1    
    64   32   33 1    
    65   32   34 1    
    66   32  100 1    
    67   33  101 1    
    68   33  102 1    
    69   33  103 1    
    70   34   35 am   BACKBONE|DICT|INTERRES
    71   34  104 1    
    72   35   36 2    
    73   37   38 2    
    74   37   39 am   BACKBONE|DICT|INTERRES
    75   39   40 1    
    76   39  105 1    
    77   40   41 1    
    78   40   42 1    
    79   40  106 1    
    80   41  107 1    
    81   41  108 1    
    82   41  109 1    
    83   42   43 2    
    84   42   44 am   BACKBONE|DICT|INTERRES
    85   44   45 1    
    86   44  110 1    
    87   45   46 1    
    88   45   47 1    
    89   45  111 1    
    90   46  112 1    
    91   46  113 1    
    92   46  114 1    
    93   47   48 2    
    94   47   49 am   BACKBONE|DICT|INTERRES
    95   49   50 1    
    96   49  115 1    
    97   50   51 1    
    98   50   52 1    
    99   50  116 1    
   100   51  117 1    
   101   51  118 1    
   102   51  119 1    
   103   52   53 2    
   104   52   54 am   BACKBONE|DICT|INTERRES
   105   54   55 1    
   106   54  120 1    
   107   55   56 1    
   108   55   57 1    
   109   55  121 1    
   110   56  122 1    
   111   56  123 1    
   112   56  124 1    
   113   57   58 2    
   114   57   59 am   BACKBONE|DICT|INTERRES
   115   59   60 1    
   116   59  125 1    
   117   60   61 1    
   118   60   62 1    
   119   60  126 1    
   120   61  127 1    
   121   61  128 1    
   122   61  129 1    
   123   62   63 2    
   124   62   64 am   BACKBONE|DICT|INTERRES
   125   64   65 1    
   126   64  130 1    
   127   65   66 1    
   128   65   69 1    
   129   65  131 1    
   130   66   67 am   BACKBONE|DICT|INTERRES
   131   66   68 2    
   132   67  132 1    
   133   67  133 1    
   134   69   70 1    
   135   69  134 1    
   136   69  135 1    
   137   70   71 1    
   138   71  136 1    
   139   71  137 1    
@<TRIPOS>SUBSTRUCTURE
     1 UNK         1 GROUP             0       ****    0 ROOT    
