@<TRIPOS>MOLECULE
3R136
137   139    1
SMALL
USER_CHARGES


@<TRIPOS>ATOM
      1 CA         25.1393   20.9682   -0.8562 C.3       0 UNK        -0.1979 
      2 C          26.5671   20.6704   -0.4219 C.2       0 UNK         0.4864 
      3 O          26.8294   19.5963    0.1212 O.2       0 UNK        -0.5359 
      4 N          27.4874   21.6098   -0.6606 N.am      1 UNK        -0.4318 
      5 CA         28.9145   21.5054   -0.3628 C.3       1 UNK         0.0824 
      6 C6         29.2277   21.6630    1.1528 C.3       12 UNK        -0.0944 
      7 S7         30.8169   20.8886    1.6213 S.3       12 UNK        -0.2672 
      8 C8         31.0388   21.4650    3.3345 C.3       12 UNK         0.0333 
      9 C9         31.0524   22.9834    3.4348 C.ar      12 UNK        -0.0807 
     10 C10        32.1260   23.7202    2.9252 C.ar      12 UNK        -0.0894 
     11 C11        32.1289   25.1164    3.0043 C.ar      12 UNK        -0.0804 
     12 C12        31.0420   25.7745    3.5900 C.ar      12 UNK        -0.0824 
     13 C13        29.9648   25.0474    4.1064 C.ar      12 UNK        -0.0762 
     14 C14        29.9817   23.6520    4.0343 C.ar      12 UNK        -0.0782 
     15 C15        28.7833   25.7646    4.7436 C.3       12 UNK         0.0230 
     16 S16        27.2480   25.4625    3.8135 S.3       12 UNK        -0.2608 
     17 C17        26.2094   26.8461    4.3905 C.3       12 UNK        -0.0989 
     18 CA         26.3871   28.1030    3.5038 C.3       5 UNK         0.0716 
     19 N          26.1639   27.8064    2.0799 N.am      5 UNK        -0.4135 
     20 C          26.4245   28.6258    1.0556 C.2       4 UNK         0.5031 
     21 O          26.7246   29.8135    1.1853 O.2       4 UNK        -0.5229 
     22 CA         26.3928   28.0118   -0.3488 C.3       4 UNK         0.0329 
     23 CB         25.6490   28.9212   -1.3424 C.3       4 UNK        -0.2001 
     24 N          27.7712   27.8251   -0.7976 N.am      4 UNK        -0.4303 
     25 C          28.5557   26.8079   -0.4217 C.2       3 UNK         0.5044 
     26 O          28.1653   25.8398    0.2360 O.2       3 UNK        -0.5152 
     27 CA         30.0306   26.9097   -0.8230 C.3       3 UNK         0.0319 
     28 CB         30.8098   27.7880    0.1712 C.3       3 UNK        -0.2001 
     29 N          30.6029   25.5678   -0.8413 N.am      3 UNK        -0.4354 
     30 C          31.4860   25.1162   -1.7386 C.2       2 UNK         0.4964 
     31 O          32.0014   25.8265   -2.6031 O.2       2 UNK        -0.5047 
     32 CA         31.8683   23.6240   -1.6834 C.3       2 UNK         0.0288 
     33 CB         33.2782   23.4475   -1.0949 C.3       2 UNK        -0.2113 
     34 N          30.9391   22.7698   -0.9375 N.am      2 UNK        -0.4145 
     35 C          29.6707   22.4986   -1.2711 C.2       1 UNK         0.5006 
     36 O          29.1043   22.9886   -2.2529 O.2       1 UNK        -0.5103 
     37 C          25.5903   29.2999    4.0691 C.2       5 UNK         0.5055 
     38 O          25.9430   29.7913    5.1420 O.2       5 UNK        -0.5220 
     39 N          24.5652   29.7735    3.3453 N.am      6 UNK        -0.4450 
     40 CA         23.8624   31.0295    3.6251 C.3       6 UNK         0.0367 
     41 CB         22.6172   31.1277    2.7292 C.3       6 UNK        -0.1929 
     42 C          24.7589   32.2710    3.4413 C.2       6 UNK         0.5070 
     43 O          24.5842   33.2504    4.1669 O.2       6 UNK        -0.5237 
     44 N          25.7026   32.2020    2.4924 N.am      7 UNK        -0.4739 
     45 CA         26.7445   33.2067    2.2664 C.3       7 UNK         0.0276 
     46 CB         26.8679   33.4741    0.7573 C.3       7 UNK        -0.1927 
     47 C          28.0933   32.7395    2.8387 C.2       7 UNK         0.5013 
     48 O          28.8329   33.5617    3.3811 O.2       7 UNK        -0.5193 
     49 N          28.3696   31.4321    2.7167 N.am      8 UNK        -0.4253 
     50 CA         29.5880   30.7204    3.1118 C.3       8 UNK         0.0242 
     51 CB         29.7969   30.7812    4.6421 C.3       8 UNK        -0.2000 
     52 C          30.8187   31.1532    2.2894 C.2       8 UNK         0.4948 
     53 O          30.6697   31.6798    1.1840 O.2       8 UNK        -0.5275 
     54 N          32.0129   30.8705    2.8174 N.am      9 UNK        -0.4246 
     55 CA         33.3176   31.1267    2.2140 C.3       9 UNK         0.0261 
     56 CB         33.5680   30.1640    1.0293 C.3       9 UNK        -0.1959 
     57 C          34.3763   31.0020    3.3215 C.2       9 UNK         0.5033 
     58 O          34.0316   31.0846    4.5050 O.2       9 UNK        -0.5390 
     59 N          35.6352   30.7548    2.9305 N.am      10 UNK        -0.4215 
     60 CA         36.8024   30.5661    3.8056 C.3       10 UNK         0.0240 
     61 CB         38.0494   30.3492    2.9318 C.3       10 UNK        -0.1982 
     62 C          36.6759   29.4361    4.8498 C.2       10 UNK         0.4970 
     63 O          37.4454   29.4252    5.8116 O.2       10 UNK        -0.4916 
     64 N          35.7076   28.5299    4.6619 N.am      11 UNK        -0.4279 
     65 CA         35.2724   27.5295    5.6476 C.3       11 UNK         0.1003 
     66 C          34.7081   28.1351    6.9679 C.2       11 UNK         0.5709 
     67 N          34.2277   29.3747    6.9777 N.am      11 UNK        -0.7358 
     68 O          34.7073   27.4654    7.9980 O.2       11 UNK        -0.4999 
     69 C69        34.2355   26.5445    5.0468 C.3       12 UNK        -0.0954 
     70 S70        34.7874   25.7394    3.5045 S.3       12 UNK        -0.2268 
     71 C71        33.3066   25.9122    2.4571 C.3       12 UNK         0.0203 
     72 H72        24.8038   20.2246   -1.5786 H         1 UNK         0.0888 
     73 H73        24.4711   20.9346    0.0038 H         1 UNK         0.0888 
     74 H74        25.0501   21.9523   -1.3161 H         1 UNK         0.0888 
     75 H75        27.2425   22.4489   -1.1724 H         1 UNK         0.3017 
     76 H76        29.2311   20.5101   -0.6830 H         1 UNK         0.0873 
     77 H77        28.4562   21.1805    1.7545 H         1 UNK         0.0745 
     78 H78        29.2095   22.7162    1.4387 H         1 UNK         0.0745 
     79 H79        30.2491   21.0400    3.9561 H         1 UNK         0.0705 
     80 H80        31.9791   21.0703    3.7219 H         1 UNK         0.0705 
     81 H81        32.9611   23.2062    2.4690 H         1 UNK         0.1334 
     82 H82        31.0371   26.8540    3.6488 H         1 UNK         0.1417 
     83 H83        29.1461   23.0895    4.4286 H         1 UNK         0.1562 
     84 H84        28.9730   26.8379    4.7932 H         1 UNK         0.0748 
     85 H85        28.6577   25.4228    5.7719 H         1 UNK         0.0748 
     86 H86        26.4523   27.0619    5.4333 H         1 UNK         0.0940 
     87 H87        25.1681   26.5181    4.3836 H         1 UNK         0.0940 
     88 H88        27.4340   28.4021    3.5807 H         1 UNK         0.0703 
     89 H89        25.9743   26.8353    1.8735 H         1 UNK         0.3081 
     90 H90        25.8809   27.0473   -0.3163 H         1 UNK         0.0719 
     91 H91        26.1225   29.8997   -1.4359 H         1 UNK         0.0809 
     92 H92        25.6105   28.4731   -2.3354 H         1 UNK         0.0809 
     93 H93        24.6196   29.0877   -1.0224 H         1 UNK         0.0809 
     94 H94        28.1828   28.5956   -1.3047 H         1 UNK         0.2990 
     95 H95        30.0836   27.3516   -1.8205 H         1 UNK         0.0690 
     96 H96        30.4375   28.8131    0.1656 H         1 UNK         0.0788 
     97 H97        31.8690   27.8254   -0.0826 H         1 UNK         0.0788 
     98 H98        30.7220   27.4136    1.1910 H         1 UNK         0.0788 
     99 H99        30.1717   24.9192   -0.1953 H         1 UNK         0.2993 
    100 H100       31.8829   23.2677   -2.7156 H         1 UNK         0.0949 
    101 H101       33.6152   22.4140   -1.1775 H         1 UNK         0.0767 
    102 H102       34.0059   24.0663   -1.6221 H         1 UNK         0.0767 
    103 H103       33.3124   23.7271   -0.0422 H         1 UNK         0.0767 
    104 H104       31.3035   22.3210   -0.1060 H         1 UNK         0.3013 
    105 H105       24.3335   29.3021    2.4835 H         1 UNK         0.3121 
    106 H106       23.5350   31.0089    4.6669 H         1 UNK         0.0774 
    107 H107       22.0619   32.0439    2.9349 H         1 UNK         0.0815 
    108 H108       22.8796   31.1373    1.6704 H         1 UNK         0.0815 
    109 H109       21.9369   30.2935    2.9008 H         1 UNK         0.0815 
    110 H110       25.7935   31.3407    1.9624 H         1 UNK         0.2987 
    111 H111       26.4806   34.1455    2.7585 H         1 UNK         0.0949 
    112 H112       27.1325   32.5705    0.2060 H         1 UNK         0.0806 
    113 H113       25.9336   33.8561    0.3458 H         1 UNK         0.0806 
    114 H114       27.6403   34.2174    0.5553 H         1 UNK         0.0806 
    115 H115       27.7167   30.8730    2.1698 H         1 UNK         0.3010 
    116 H116       29.4125   29.6773    2.8455 H         1 UNK         0.0829 
    117 H117       30.1183   31.7709    4.9687 H         1 UNK         0.0813 
    118 H118       28.8753   30.5409    5.1732 H         1 UNK         0.0813 
    119 H119       30.5473   30.0635    4.9750 H         1 UNK         0.0813 
    120 H120       32.0686   30.5256    3.7679 H         1 UNK         0.3038 
    121 H121       33.3381   32.1573    1.8543 H         1 UNK         0.0769 
    122 H122       33.6314   29.1266    1.3580 H         1 UNK         0.0811 
    123 H123       34.4922   30.4034    0.5030 H         1 UNK         0.0811 
    124 H124       32.7720   30.2267    0.2876 H         1 UNK         0.0811 
    125 H125       35.8149   30.6945    1.9386 H         1 UNK         0.3204 
    126 H126       36.9352   31.4941    4.3653 H         1 UNK         0.0748 
    127 H127       38.9450   30.2415    3.5457 H         1 UNK         0.0771 
    128 H128       37.9627   29.4486    2.3223 H         1 UNK         0.0771 
    129 H129       38.2199   31.1938    2.2637 H         1 UNK         0.0771 
    130 H130       35.1404   28.6032    3.8329 H         1 UNK         0.2980 
    131 H131       36.1577   26.9540    5.9237 H         1 UNK         0.0545 
    132 H132       33.8683   29.7559    7.8378 H         1 UNK         0.3459 
    133 H133       34.2189   29.9377    6.1333 H         1 UNK         0.3459 
    134 H134       34.0009   25.7534    5.7615 H         1 UNK         0.0616 
    135 H135       33.2980   27.0705    4.8601 H         1 UNK         0.0616 
    136 H136       33.0528   26.9688    2.3654 H         1 UNK         0.0634 
    137 H137       33.5421   25.5682    1.4498 H         1 UNK         0.0634 
@<TRIPOS>BOND
     1    1    2 1    
     2    1   72 1    
     3    1   73 1    
     4    1   74 1    
     5    2    3 2    
     6    2    4 am   BACKBONE|DICT|INTERRES
     7    4    5 1    
     8    4   75 1    
     9    5    6 1    
    10    5   35 1    
    11    5   76 1    
    12    6    7 1    
    13    6   77 1    
    14    6   78 1    
    15    7    8 1    
    16    8    9 1    
    17    8   79 1    
    18    8   80 1    
    19    9   10 ar   
    20    9   14 ar   
    21   10   11 ar   
    22   10   81 1    
    23   11   12 ar   
    24   11   71 1    
    25   12   13 ar   
    26   12   82 1    
    27   13   14 ar   
    28   13   15 1    
    29   14   83 1    
    30   15   16 1    
    31   15   84 1    
    32   15   85 1    
    33   16   17 1    
    34   17   18 1    
    35   17   86 1    
    36   17   87 1    
    37   18   19 1    
    38   18   37 1    
    39   18   88 1    
    40   19   20 am   BACKBONE|DICT|INTERRES
    41   19   89 1    
    42   20   21 2    
    43   20   22 1    
    44   22   23 1    
    45   22   24 1    
    46   22   90 1    
    47   23   91 1    
    48   23   92 1    
    49   23   93 1    
    50   24   25 am   BACKBONE|DICT|INTERRES
    51   24   94 1    
    52   25   26 2    
    53   25   27 1    
    54   27   28 1    
    55   27   29 1    
    56   27   95 1    
    57   28   96 1    
    58   28   97 1    
    59   28   98 1    
    60   29   30 am   BACKBONE|DICT|INTERRES
    61   29   99 1    
    62   30   31 2    
    63   30   32 1    
    64   32   33 1    
    65   32   34 1    
    66   32  100 1    
    67   33  101 1    
    68   33  102 1    
    69   33  103 1    
    70   34   35 am   BACKBONE|DICT|INTERRES
    71   34  104 1    
    72   35   36 2    
    73   37   38 2    
    74   37   39 am   BACKBONE|DICT|INTERRES
    75   39   40 1    
    76   39  105 1    
    77   40   41 1    
    78   40   42 1    
    79   40  106 1    
    80   41  107 1    
    81   41  108 1    
    82   41  109 1    
    83   42   43 2    
    84   42   44 am   BACKBONE|DICT|INTERRES
    85   44   45 1    
    86   44  110 1    
    87   45   46 1    
    88   45   47 1    
    89   45  111 1    
    90   46  112 1    
    91   46  113 1    
    92   46  114 1    
    93   47   48 2    
    94   47   49 am   BACKBONE|DICT|INTERRES
    95   49   50 1    
    96   49  115 1    
    97   50   51 1    
    98   50   52 1    
    99   50  116 1    
   100   51  117 1    
   101   51  118 1    
   102   51  119 1    
   103   52   53 2    
   104   52   54 am   BACKBONE|DICT|INTERRES
   105   54   55 1    
   106   54  120 1    
   107   55   56 1    
   108   55   57 1    
   109   55  121 1    
   110   56  122 1    
   111   56  123 1    
   112   56  124 1    
   113   57   58 2    
   114   57   59 am   BACKBONE|DICT|INTERRES
   115   59   60 1    
   116   59  125 1    
   117   60   61 1    
   118   60   62 1    
   119   60  126 1    
   120   61  127 1    
   121   61  128 1    
   122   61  129 1    
   123   62   63 2    
   124   62   64 am   BACKBONE|DICT|INTERRES
   125   64   65 1    
   126   64  130 1    
   127   65   66 1    
   128   65   69 1    
   129   65  131 1    
   130   66   67 am   BACKBONE|DICT|INTERRES
   131   66   68 2    
   132   67  132 1    
   133   67  133 1    
   134   69   70 1    
   135   69  134 1    
   136   69  135 1    
   137   70   71 1    
   138   71  136 1    
   139   71  137 1    
@<TRIPOS>SUBSTRUCTURE
     1 UNK         1 GROUP             0       ****    0 ROOT    
