@<TRIPOS>MOLECULE
3R136
137   139    1
SMALL
USER_CHARGES


@<TRIPOS>ATOM
      1 CA         33.6087   24.6242   -3.8004 C.3       0 UNK        -0.1979 
      2 C          32.5886   25.2617   -2.8689 C.2       0 UNK         0.4864 
      3 O          31.8934   26.1950   -3.2713 O.2       0 UNK        -0.5359 
      4 N          32.4952   24.7635   -1.6284 N.am      1 UNK        -0.4318 
      5 CA         31.5613   25.2299   -0.5958 C.3       1 UNK         0.0824 
      6 C6         31.9525   24.7289    0.8180 C.3       12 UNK        -0.0944 
      7 S7         32.3505   22.9471    0.9186 S.3       12 UNK        -0.2672 
      8 C8         30.8147   22.2370    1.6061 C.3       12 UNK         0.0333 
      9 C9         30.4009   22.7870    2.9703 C.ar      12 UNK        -0.0807 
     10 C10        31.3453   23.1494    3.9372 C.ar      12 UNK        -0.0894 
     11 C11        30.9445   23.6453    5.1817 C.ar      12 UNK        -0.0804 
     12 C12        29.5796   23.7556    5.4697 C.ar      12 UNK        -0.0824 
     13 C13        28.6231   23.3646    4.5253 C.ar      12 UNK        -0.0762 
     14 C14        29.0414   22.8924    3.2774 C.ar      12 UNK        -0.0782 
     15 C15        27.1374   23.3993    4.8604 C.3       12 UNK         0.0230 
     16 S16        26.2253   24.6071    3.8482 S.3       12 UNK        -0.2608 
     17 C17        26.6926   26.1800    4.6418 C.3       12 UNK        -0.0989 
     18 CA         27.9090   26.8493    3.9500 C.3       5 UNK         0.0716 
     19 N          27.6663   27.1444    2.5322 N.am      5 UNK        -0.4135 
     20 C          26.9639   28.1506    1.9898 C.2       4 UNK         0.5031 
     21 O          26.5477   29.1287    2.6107 O.2       4 UNK        -0.5229 
     22 CA         26.6268   28.0187    0.4934 C.3       4 UNK         0.0329 
     23 CB         27.6776   28.7129   -0.3863 C.3       4 UNK        -0.2001 
     24 N          26.4879   26.6175    0.0819 N.am      4 UNK        -0.4303 
     25 C          25.4007   25.8677    0.3313 C.2       3 UNK         0.5044 
     26 O          24.3922   26.3079    0.8854 O.2       3 UNK        -0.5152 
     27 CA         25.4256   24.3934   -0.1175 C.3       3 UNK         0.0319 
     28 CB         24.0627   23.9320   -0.6666 C.3       3 UNK        -0.2001 
     29 N          26.4491   24.1706   -1.1380 N.am      3 UNK        -0.4354 
     30 C          27.4634   23.3035   -1.0484 C.2       2 UNK         0.4964 
     31 O          27.6008   22.4927   -0.1319 O.2       2 UNK        -0.5047 
     32 CA         28.5320   23.3704   -2.1587 C.3       2 UNK         0.0288 
     33 CB         28.1215   24.2255   -3.3804 C.3       2 UNK        -0.2113 
     34 N          29.8313   23.8303   -1.6528 N.am      2 UNK        -0.4145 
     35 C          30.0821   24.9282   -0.9181 C.2       1 UNK         0.5006 
     36 O          29.2125   25.7006   -0.5061 O.2       1 UNK        -0.5103 
     37 C          28.4564   28.0435    4.7567 C.2       5 UNK         0.5055 
     38 O          29.6717   28.1914    4.8481 O.2       5 UNK        -0.5220 
     39 N          27.5667   28.8571    5.3417 N.am      6 UNK        -0.4450 
     40 CA         27.9018   30.0181    6.1708 C.3       6 UNK         0.0367 
     41 CB         26.6516   30.4394    6.9612 C.3       6 UNK        -0.1929 
     42 C          28.4761   31.2151    5.3878 C.2       6 UNK         0.5070 
     43 O          28.9899   32.1420    6.0164 O.2       6 UNK        -0.5237 
     44 N          28.3722   31.1981    4.0509 N.am      7 UNK        -0.4739 
     45 CA         28.9567   32.1967    3.1518 C.3       7 UNK         0.0276 
     46 CB         28.5341   31.8717    1.7116 C.3       7 UNK        -0.1927 
     47 C          30.4921   32.2332    3.2410 C.2       7 UNK         0.5013 
     48 O          31.1184   31.1851    3.4147 O.2       7 UNK        -0.5193 
     49 N          31.0783   33.4238    3.0539 N.am      8 UNK        -0.4253 
     50 CA         32.5270   33.6687    3.1149 C.3       8 UNK         0.0242 
     51 CB         32.7909   35.1784    2.9919 C.3       8 UNK        -0.2000 
     52 C          33.3555   32.8916    2.0728 C.2       8 UNK         0.4948 
     53 O          34.5349   32.6326    2.3124 O.2       8 UNK        -0.5275 
     54 N          32.7235   32.5156    0.9523 N.am      9 UNK        -0.4246 
     55 CA         33.2893   31.6416   -0.0787 C.3       9 UNK         0.0261 
     56 CB         32.4759   31.8146   -1.3729 C.3       9 UNK        -0.1959 
     57 C          33.3342   30.1545    0.3303 C.2       9 UNK         0.5033 
     58 O          34.0134   29.3764   -0.3414 O.2       9 UNK        -0.5390 
     59 N          32.6055   29.7818    1.3901 N.am      10 UNK        -0.4215 
     60 CA         32.5091   28.4335    1.9343 C.3       10 UNK         0.0240 
     61 CB         31.0248   28.0157    1.9417 C.3       10 UNK        -0.1982 
     62 C          33.1927   28.4138    3.3122 C.2       10 UNK         0.4970 
     63 O          34.4110   28.5897    3.3687 O.2       10 UNK        -0.4916 
     64 N          32.4244   28.1917    4.3832 N.am      11 UNK        -0.4279 
     65 CA         32.8877   28.0973    5.7746 C.3       11 UNK         0.1003 
     66 C          32.5249   29.3473    6.6279 C.2       11 UNK         0.5709 
     67 N          31.9300   30.3966    6.0748 N.am      11 UNK        -0.7358 
     68 O          32.8143   29.3801    7.8221 O.2       11 UNK        -0.4999 
     69 C69        32.3864   26.7836    6.4373 C.3       12 UNK        -0.0954 
     70 S70        33.1311   25.3042    5.6778 S.3       12 UNK        -0.2268 
     71 C71        31.9947   23.9913    6.2304 C.3       12 UNK         0.0203 
     72 H72        34.1529   23.8134   -3.3163 H         1 UNK         0.0888 
     73 H73        33.1110   24.2200   -4.6815 H         1 UNK         0.0888 
     74 H74        34.3328   25.3691   -4.1293 H         1 UNK         0.0888 
     75 H75        33.0946   23.9991   -1.3477 H         1 UNK         0.3017 
     76 H76        31.6396   26.3189   -0.5821 H         1 UNK         0.0873 
     77 H77        32.8431   25.2650    1.1482 H         1 UNK         0.0745 
     78 H78        31.1829   24.9800    1.5488 H         1 UNK         0.0745 
     79 H79        30.9430   21.1577    1.6951 H         1 UNK         0.0705 
     80 H80        30.0166   22.3912    0.8810 H         1 UNK         0.0705 
     81 H81        32.4008   23.0465    3.7265 H         1 UNK         0.1334 
     82 H82        29.2628   24.1159    6.4389 H         1 UNK         0.1417 
     83 H83        28.3006   22.5930    2.5471 H         1 UNK         0.1562 
     84 H84        26.9746   23.6062    5.9192 H         1 UNK         0.0748 
     85 H85        26.7159   22.4095    4.6797 H         1 UNK         0.0748 
     86 H86        26.8956   25.9968    5.6990 H         1 UNK         0.0940 
     87 H87        25.8195   26.8337    4.6074 H         1 UNK         0.0940 
     88 H88        28.7192   26.1193    3.9464 H         1 UNK         0.0703 
     89 H89        27.9757   26.4225    1.8978 H         1 UNK         0.3081 
     90 H90        25.6721   28.5222    0.3261 H         1 UNK         0.0719 
     91 H91        27.6903   29.7859   -0.1996 H         1 UNK         0.0809 
     92 H92        28.6815   28.3323   -0.2032 H         1 UNK         0.0809 
     93 H93        27.4591   28.5774   -1.4456 H         1 UNK         0.0809 
     94 H94        27.3116   26.1821   -0.3254 H         1 UNK         0.2990 
     95 H95        25.6487   23.8084    0.7772 H         1 UNK         0.0690 
     96 H96        23.7555   24.5232   -1.5301 H         1 UNK         0.0788 
     97 H97        23.2815   24.0241    0.0891 H         1 UNK         0.0788 
     98 H98        24.0932   22.8854   -0.9700 H         1 UNK         0.0788 
     99 H99        26.4304   24.7980   -1.9302 H         1 UNK         0.2993 
    100 H100       28.6730   22.3446   -2.5029 H         1 UNK         0.0949 
    101 H101       28.0184   25.2824   -3.1305 H         1 UNK         0.0767 
    102 H102       28.8690   24.1531   -4.1707 H         1 UNK         0.0767 
    103 H103       27.1773   23.8838   -3.8072 H         1 UNK         0.0767 
    104 H104       30.6226   23.2528   -1.8980 H         1 UNK         0.3013 
    105 H105       26.5868   28.7130    5.1443 H         1 UNK         0.3121 
    106 H106       28.6698   29.7102    6.8839 H         1 UNK         0.0774 
    107 H107       26.8721   31.2771    7.6244 H         1 UNK         0.0815 
    108 H108       25.8432   30.7525    6.2993 H         1 UNK         0.0815 
    109 H109       26.2819   29.6252    7.5848 H         1 UNK         0.0815 
    110 H110       27.9086   30.4071    3.6179 H         1 UNK         0.2987 
    111 H111       28.5583   33.1739    3.4325 H         1 UNK         0.0949 
    112 H112       28.8745   32.6403    1.0167 H         1 UNK         0.0806 
    113 H113       28.9584   30.9223    1.3830 H         1 UNK         0.0806 
    114 H114       27.4497   31.8070    1.6177 H         1 UNK         0.0806 
    115 H115       30.4937   34.2329    2.8981 H         1 UNK         0.3010 
    116 H116       32.8688   33.3411    4.0993 H         1 UNK         0.0829 
    117 H117       32.2976   35.7349    3.7891 H         1 UNK         0.0813 
    118 H118       33.8579   35.3954    3.0622 H         1 UNK         0.0813 
    119 H119       32.4407   35.5736    2.0375 H         1 UNK         0.0813 
    120 H120       31.7606   32.7942    0.8339 H         1 UNK         0.3038 
    121 H121       34.3166   31.9570   -0.2744 H         1 UNK         0.0769 
    122 H122       32.4862   32.8500   -1.7139 H         1 UNK         0.0811 
    123 H123       32.8903   31.2068   -2.1786 H         1 UNK         0.0811 
    124 H124       31.4361   31.5128   -1.2403 H         1 UNK         0.0811 
    125 H125       32.1333   30.4933    1.9420 H         1 UNK         0.3204 
    126 H126       33.0551   27.7248    1.3092 H         1 UNK         0.0748 
    127 H127       30.6596   27.8779    0.9258 H         1 UNK         0.0771 
    128 H128       30.8690   27.0750    2.4697 H         1 UNK         0.0771 
    129 H129       30.3929   28.7706    2.4095 H         1 UNK         0.0771 
    130 H130       31.4125   28.1398    4.2830 H         1 UNK         0.2980 
    131 H131       33.9784   28.0681    5.7874 H         1 UNK         0.0545 
    132 H132       31.6781   30.4050    5.0914 H         1 UNK         0.3459 
    133 H133       31.7019   31.1903    6.6503 H         1 UNK         0.3459 
    134 H134       32.6387   26.7579    7.4988 H         1 UNK         0.0616 
    135 H135       31.2993   26.7125    6.3766 H         1 UNK         0.0616 
    136 H136       31.5316   24.2774    7.1760 H         1 UNK         0.0634 
    137 H137       32.5811   23.0956    6.4391 H         1 UNK         0.0634 
@<TRIPOS>BOND
     1    1    2 1    
     2    1   72 1    
     3    1   73 1    
     4    1   74 1    
     5    2    3 2    
     6    2    4 am   BACKBONE|DICT|INTERRES
     7    4    5 1    
     8    4   75 1    
     9    5    6 1    
    10    5   35 1    
    11    5   76 1    
    12    6    7 1    
    13    6   77 1    
    14    6   78 1    
    15    7    8 1    
    16    8    9 1    
    17    8   79 1    
    18    8   80 1    
    19    9   10 ar   
    20    9   14 ar   
    21   10   11 ar   
    22   10   81 1    
    23   11   12 ar   
    24   11   71 1    
    25   12   13 ar   
    26   12   82 1    
    27   13   14 ar   
    28   13   15 1    
    29   14   83 1    
    30   15   16 1    
    31   15   84 1    
    32   15   85 1    
    33   16   17 1    
    34   17   18 1    
    35   17   86 1    
    36   17   87 1    
    37   18   19 1    
    38   18   37 1    
    39   18   88 1    
    40   19   20 am   BACKBONE|DICT|INTERRES
    41   19   89 1    
    42   20   21 2    
    43   20   22 1    
    44   22   23 1    
    45   22   24 1    
    46   22   90 1    
    47   23   91 1    
    48   23   92 1    
    49   23   93 1    
    50   24   25 am   BACKBONE|DICT|INTERRES
    51   24   94 1    
    52   25   26 2    
    53   25   27 1    
    54   27   28 1    
    55   27   29 1    
    56   27   95 1    
    57   28   96 1    
    58   28   97 1    
    59   28   98 1    
    60   29   30 am   BACKBONE|DICT|INTERRES
    61   29   99 1    
    62   30   31 2    
    63   30   32 1    
    64   32   33 1    
    65   32   34 1    
    66   32  100 1    
    67   33  101 1    
    68   33  102 1    
    69   33  103 1    
    70   34   35 am   BACKBONE|DICT|INTERRES
    71   34  104 1    
    72   35   36 2    
    73   37   38 2    
    74   37   39 am   BACKBONE|DICT|INTERRES
    75   39   40 1    
    76   39  105 1    
    77   40   41 1    
    78   40   42 1    
    79   40  106 1    
    80   41  107 1    
    81   41  108 1    
    82   41  109 1    
    83   42   43 2    
    84   42   44 am   BACKBONE|DICT|INTERRES
    85   44   45 1    
    86   44  110 1    
    87   45   46 1    
    88   45   47 1    
    89   45  111 1    
    90   46  112 1    
    91   46  113 1    
    92   46  114 1    
    93   47   48 2    
    94   47   49 am   BACKBONE|DICT|INTERRES
    95   49   50 1    
    96   49  115 1    
    97   50   51 1    
    98   50   52 1    
    99   50  116 1    
   100   51  117 1    
   101   51  118 1    
   102   51  119 1    
   103   52   53 2    
   104   52   54 am   BACKBONE|DICT|INTERRES
   105   54   55 1    
   106   54  120 1    
   107   55   56 1    
   108   55   57 1    
   109   55  121 1    
   110   56  122 1    
   111   56  123 1    
   112   56  124 1    
   113   57   58 2    
   114   57   59 am   BACKBONE|DICT|INTERRES
   115   59   60 1    
   116   59  125 1    
   117   60   61 1    
   118   60   62 1    
   119   60  126 1    
   120   61  127 1    
   121   61  128 1    
   122   61  129 1    
   123   62   63 2    
   124   62   64 am   BACKBONE|DICT|INTERRES
   125   64   65 1    
   126   64  130 1    
   127   65   66 1    
   128   65   69 1    
   129   65  131 1    
   130   66   67 am   BACKBONE|DICT|INTERRES
   131   66   68 2    
   132   67  132 1    
   133   67  133 1    
   134   69   70 1    
   135   69  134 1    
   136   69  135 1    
   137   70   71 1    
   138   71  136 1    
   139   71  137 1    
@<TRIPOS>SUBSTRUCTURE
     1 UNK         1 GROUP             0       ****    0 ROOT    
