@<TRIPOS>MOLECULE
3R136
137   139    1
SMALL
USER_CHARGES


@<TRIPOS>ATOM
      1 CA         29.7037   22.8326   -0.2121 C.3       0 UNK        -0.1979 
      2 C          28.7374   23.7966    0.4567 C.2       0 UNK         0.4864 
      3 O          28.3727   24.8108   -0.1402 O.2       0 UNK        -0.5359 
      4 N          28.3244   23.5056    1.6947 N.am      1 UNK        -0.4318 
      5 CA         27.3900   24.3261    2.4707 C.3       1 UNK         0.0824 
      6 C6         27.3835   23.9577    3.9757 C.3       12 UNK        -0.0944 
      7 S7         29.0535   23.8339    4.7155 S.3       12 UNK        -0.2672 
      8 C8         29.6002   25.5696    4.7803 C.3       12 UNK         0.0333 
      9 C9         30.8279   25.8045    3.9072 C.ar      12 UNK        -0.0807 
     10 C10        32.1117   25.7673    4.4595 C.ar      12 UNK        -0.0894 
     11 C11        33.2365   26.0111    3.6625 C.ar      12 UNK        -0.0804 
     12 C12        33.0696   26.3048    2.3038 C.ar      12 UNK        -0.0824 
     13 C13        31.7928   26.3273    1.7344 C.ar      12 UNK        -0.0762 
     14 C14        30.6834   26.0693    2.5437 C.ar      12 UNK        -0.0782 
     15 C15        31.6122   26.5659    0.2374 C.3       12 UNK         0.0230 
     16 S16        31.3855   28.3218   -0.2054 S.3       12 UNK        -0.2608 
     17 C17        29.7191   28.6874    0.4463 C.3       12 UNK        -0.0989 
     18 CA         28.5588   28.6115   -0.5819 C.3       5 UNK         0.0716 
     19 N          28.5470   27.3784   -1.3726 N.am      5 UNK        -0.4135 
     20 C          28.4283   27.3396   -2.7066 C.2       4 UNK         0.5031 
     21 O          28.3673   28.3421   -3.4204 O.2       4 UNK        -0.5229 
     22 CA         28.3456   25.9590   -3.3700 C.3       4 UNK         0.0329 
     23 CB         29.7147   25.2569   -3.3554 C.3       4 UNK        -0.2001 
     24 N          27.3469   25.1123   -2.7155 N.am      4 UNK        -0.4303 
     25 C          26.3211   24.5134   -3.3345 C.2       3 UNK         0.5044 
     26 O          26.0804   24.6278   -4.5373 O.2       3 UNK        -0.5152 
     27 CA         25.4109   23.6144   -2.4786 C.3       3 UNK         0.0319 
     28 CB         26.0091   22.2038   -2.3548 C.3       3 UNK        -0.2001 
     29 N          25.1492   24.1445   -1.1402 N.am      3 UNK        -0.4354 
     30 C          24.3897   25.2129   -0.8650 C.2       2 UNK         0.4964 
     31 O          23.8131   25.8772   -1.7265 O.2       2 UNK        -0.5047 
     32 CA         24.2464   25.6262    0.6120 C.3       2 UNK         0.0288 
     33 CB         22.9897   25.0099    1.2581 C.3       2 UNK        -0.2113 
     34 N          25.4585   25.3970    1.4102 N.am      2 UNK        -0.4145 
     35 C          25.9862   24.2436    1.8429 C.2       1 UNK         0.5006 
     36 O          25.4549   23.1408    1.6960 O.2       1 UNK        -0.5103 
     37 C          27.2105   28.6825    0.1515 C.2       5 UNK         0.5055 
     38 O          26.8422   27.7111    0.8157 O.2       5 UNK        -0.5220 
     39 N          26.5081   29.8193    0.0496 N.am      6 UNK        -0.4450 
     40 CA         25.1982   30.0474    0.6789 C.3       6 UNK         0.0367 
     41 CB         24.5895   31.3433    0.1188 C.3       6 UNK        -0.1929 
     42 C          25.2330   30.0943    2.2204 C.2       6 UNK         0.5070 
     43 O          24.2045   29.8685    2.8582 O.2       6 UNK        -0.5237 
     44 N          26.4089   30.3784    2.7840 N.am      7 UNK        -0.4739 
     45 CA         26.7368   30.3393    4.2045 C.3       7 UNK         0.0276 
     46 CB         26.5180   31.7327    4.8210 C.3       7 UNK        -0.1927 
     47 C          28.2000   29.8897    4.3209 C.2       7 UNK         0.5013 
     48 O          28.8901   29.8111    3.3011 O.2       7 UNK        -0.5193 
     49 N          28.6572   29.6028    5.5464 N.am      8 UNK        -0.4253 
     50 CA         30.0414   29.2092    5.8270 C.3       8 UNK         0.0242 
     51 CB         30.1775   28.8079    7.3044 C.3       8 UNK        -0.2000 
     52 C          31.0456   30.3174    5.4618 C.2       8 UNK         0.4948 
     53 O          30.8364   31.4773    5.8281 O.2       8 UNK        -0.5275 
     54 N          32.1054   29.9296    4.7453 N.am      9 UNK        -0.4246 
     55 CA         33.1938   30.8017    4.3057 C.3       9 UNK         0.0261 
     56 CB         33.7697   30.2141    3.0009 C.3       9 UNK        -0.1959 
     57 C          34.2712   30.9469    5.3991 C.2       9 UNK         0.5033 
     58 O          34.0881   30.4754    6.5247 O.2       9 UNK        -0.5390 
     59 N          35.3985   31.5814    5.0443 N.am      10 UNK        -0.4215 
     60 CA         36.6110   31.6235    5.8717 C.3       10 UNK         0.0240 
     61 CB         37.6015   32.6440    5.2872 C.3       10 UNK        -0.1982 
     62 C          37.2742   30.2390    6.0126 C.2       10 UNK         0.4970 
     63 O          37.8046   29.9308    7.0803 O.2       10 UNK        -0.4916 
     64 N          37.2053   29.4369    4.9391 N.am      11 UNK        -0.4279 
     65 CA         37.6126   28.0212    4.8655 C.3       11 UNK         0.1003 
     66 C          39.1394   27.7582    5.0465 C.2       11 UNK         0.5709 
     67 N          40.0022   28.7572    4.9026 N.am      11 UNK        -0.7358 
     68 O          39.5568   26.6269    5.2846 O.2       11 UNK        -0.4999 
     69 C69        36.7270   27.0911    5.7480 C.3       12 UNK        -0.0954 
     70 S70        34.9421   27.2907    5.4187 S.3       12 UNK        -0.2268 
     71 C71        34.6323   25.9252    4.2637 C.3       12 UNK         0.0203 
     72 H72        29.3609   22.5912   -1.2176 H         1 UNK         0.0888 
     73 H73        30.6903   23.2884   -0.2892 H         1 UNK         0.0888 
     74 H74        29.7999   21.9020    0.3467 H         1 UNK         0.0888 
     75 H75        28.6452   22.6635    2.1505 H         1 UNK         0.3017 
     76 H76        27.7105   25.3648    2.3961 H         1 UNK         0.0873 
     77 H77        26.8939   22.9934    4.1268 H         1 UNK         0.0745 
     78 H78        26.7992   24.6838    4.5441 H         1 UNK         0.0745 
     79 H79        29.8248   25.8239    5.8173 H         1 UNK         0.0705 
     80 H80        28.7937   26.2386    4.4764 H         1 UNK         0.0705 
     81 H81        32.2396   25.5462    5.5106 H         1 UNK         0.1334 
     82 H82        33.9346   26.4913    1.6819 H         1 UNK         0.1417 
     83 H83        29.7012   26.0704    2.1029 H         1 UNK         0.1562 
     84 H84        30.7654   25.9920   -0.1354 H         1 UNK         0.0748 
     85 H85        32.4834   26.1867   -0.2987 H         1 UNK         0.0748 
     86 H86        29.7655   29.7012    0.8471 H         1 UNK         0.0940 
     87 H87        29.5191   28.0614    1.3107 H         1 UNK         0.0940 
     88 H88        28.6474   29.4790   -1.2390 H         1 UNK         0.0703 
     89 H89        28.5227   26.5095   -0.8429 H         1 UNK         0.3081 
     90 H90        28.0712   26.1261   -4.4137 H         1 UNK         0.0719 
     91 H91        30.4746   25.8742   -3.8363 H         1 UNK         0.0809 
     92 H92        30.0570   25.0496   -2.3418 H         1 UNK         0.0809 
     93 H93        29.6770   24.3100   -3.8941 H         1 UNK         0.0809 
     94 H94        27.4785   24.9604   -1.7176 H         1 UNK         0.2990 
     95 H95        24.4531   23.5296   -2.9966 H         1 UNK         0.0690 
     96 H96        25.3280   21.5288   -1.8361 H         1 UNK         0.0788 
     97 H97        26.9532   22.2108   -1.8097 H         1 UNK         0.0788 
     98 H98        26.2030   21.7739   -3.3386 H         1 UNK         0.0788 
     99 H99        25.5433   23.6389   -0.3561 H         1 UNK         0.2993 
    100 H100       24.1108   26.7089    0.6105 H         1 UNK         0.0949 
    101 H101       23.0095   23.9201    1.2400 H         1 UNK         0.0767 
    102 H102       22.8801   25.3285    2.2948 H         1 UNK         0.0767 
    103 H103       22.0905   25.3224    0.7256 H         1 UNK         0.0767 
    104 H104       26.0476   26.2287    1.4642 H         1 UNK         0.3013 
    105 H105       26.8790   30.5762   -0.5075 H         1 UNK         0.3121 
    106 H106       24.5462   29.2175    0.3984 H         1 UNK         0.0774 
    107 H107       23.6007   31.5249    0.5429 H         1 UNK         0.0815 
    108 H108       25.2067   32.2123    0.3503 H         1 UNK         0.0815 
    109 H109       24.4699   31.2921   -0.9635 H         1 UNK         0.0815 
    110 H110       27.2233   30.4686    2.1888 H         1 UNK         0.2987 
    111 H111       26.1086   29.6018    4.7093 H         1 UNK         0.0949 
    112 H112       25.4849   32.0599    4.7020 H         1 UNK         0.0806 
    113 H113       26.7341   31.7315    5.8899 H         1 UNK         0.0806 
    114 H114       27.1614   32.4821    4.3581 H         1 UNK         0.0806 
    115 H115       28.0470   29.7231    6.3416 H         1 UNK         0.3010 
    116 H116       30.2602   28.3333    5.2145 H         1 UNK         0.0829 
    117 H117       29.5173   27.9775    7.5551 H         1 UNK         0.0813 
    118 H118       31.1972   28.4898    7.5272 H         1 UNK         0.0813 
    119 H119       29.9437   29.6394    7.9705 H         1 UNK         0.0813 
    120 H120       32.2158   28.9481    4.5339 H         1 UNK         0.3038 
    121 H121       32.7937   31.7956    4.0940 H         1 UNK         0.0769 
    122 H122       34.4956   30.8841    2.5402 H         1 UNK         0.0811 
    123 H123       32.9836   30.0491    2.2628 H         1 UNK         0.0811 
    124 H124       34.2646   29.2571    3.1710 H         1 UNK         0.0811 
    125 H125       35.4626   31.9831    4.1199 H         1 UNK         0.3204 
    126 H126       36.3276   31.9578    6.8722 H         1 UNK         0.0748 
    127 H127       38.5032   32.7050    5.8983 H         1 UNK         0.0771 
    128 H128       37.9107   32.3787    4.2753 H         1 UNK         0.0771 
    129 H129       37.1674   33.6436    5.2546 H         1 UNK         0.0771 
    130 H130       36.7720   29.8006    4.1048 H         1 UNK         0.2980 
    131 H131       37.4238   27.7344    3.8306 H         1 UNK         0.0545 
    132 H132       40.9881   28.5772    5.0094 H         1 UNK         0.3459 
    133 H133       39.6764   29.6883    4.7002 H         1 UNK         0.3459 
    134 H134       36.9922   26.0432    5.5971 H         1 UNK         0.0616 
    135 H135       36.9002   27.2960    6.8055 H         1 UNK         0.0616 
    136 H136       34.7465   24.9755    4.7883 H         1 UNK         0.0634 
    137 H137       35.3902   25.9419    3.4789 H         1 UNK         0.0634 
@<TRIPOS>BOND
     1    1    2 1    
     2    1   72 1    
     3    1   73 1    
     4    1   74 1    
     5    2    3 2    
     6    2    4 am   BACKBONE|DICT|INTERRES
     7    4    5 1    
     8    4   75 1    
     9    5    6 1    
    10    5   35 1    
    11    5   76 1    
    12    6    7 1    
    13    6   77 1    
    14    6   78 1    
    15    7    8 1    
    16    8    9 1    
    17    8   79 1    
    18    8   80 1    
    19    9   10 ar   
    20    9   14 ar   
    21   10   11 ar   
    22   10   81 1    
    23   11   12 ar   
    24   11   71 1    
    25   12   13 ar   
    26   12   82 1    
    27   13   14 ar   
    28   13   15 1    
    29   14   83 1    
    30   15   16 1    
    31   15   84 1    
    32   15   85 1    
    33   16   17 1    
    34   17   18 1    
    35   17   86 1    
    36   17   87 1    
    37   18   19 1    
    38   18   37 1    
    39   18   88 1    
    40   19   20 am   BACKBONE|DICT|INTERRES
    41   19   89 1    
    42   20   21 2    
    43   20   22 1    
    44   22   23 1    
    45   22   24 1    
    46   22   90 1    
    47   23   91 1    
    48   23   92 1    
    49   23   93 1    
    50   24   25 am   BACKBONE|DICT|INTERRES
    51   24   94 1    
    52   25   26 2    
    53   25   27 1    
    54   27   28 1    
    55   27   29 1    
    56   27   95 1    
    57   28   96 1    
    58   28   97 1    
    59   28   98 1    
    60   29   30 am   BACKBONE|DICT|INTERRES
    61   29   99 1    
    62   30   31 2    
    63   30   32 1    
    64   32   33 1    
    65   32   34 1    
    66   32  100 1    
    67   33  101 1    
    68   33  102 1    
    69   33  103 1    
    70   34   35 am   BACKBONE|DICT|INTERRES
    71   34  104 1    
    72   35   36 2    
    73   37   38 2    
    74   37   39 am   BACKBONE|DICT|INTERRES
    75   39   40 1    
    76   39  105 1    
    77   40   41 1    
    78   40   42 1    
    79   40  106 1    
    80   41  107 1    
    81   41  108 1    
    82   41  109 1    
    83   42   43 2    
    84   42   44 am   BACKBONE|DICT|INTERRES
    85   44   45 1    
    86   44  110 1    
    87   45   46 1    
    88   45   47 1    
    89   45  111 1    
    90   46  112 1    
    91   46  113 1    
    92   46  114 1    
    93   47   48 2    
    94   47   49 am   BACKBONE|DICT|INTERRES
    95   49   50 1    
    96   49  115 1    
    97   50   51 1    
    98   50   52 1    
    99   50  116 1    
   100   51  117 1    
   101   51  118 1    
   102   51  119 1    
   103   52   53 2    
   104   52   54 am   BACKBONE|DICT|INTERRES
   105   54   55 1    
   106   54  120 1    
   107   55   56 1    
   108   55   57 1    
   109   55  121 1    
   110   56  122 1    
   111   56  123 1    
   112   56  124 1    
   113   57   58 2    
   114   57   59 am   BACKBONE|DICT|INTERRES
   115   59   60 1    
   116   59  125 1    
   117   60   61 1    
   118   60   62 1    
   119   60  126 1    
   120   61  127 1    
   121   61  128 1    
   122   61  129 1    
   123   62   63 2    
   124   62   64 am   BACKBONE|DICT|INTERRES
   125   64   65 1    
   126   64  130 1    
   127   65   66 1    
   128   65   69 1    
   129   65  131 1    
   130   66   67 am   BACKBONE|DICT|INTERRES
   131   66   68 2    
   132   67  132 1    
   133   67  133 1    
   134   69   70 1    
   135   69  134 1    
   136   69  135 1    
   137   70   71 1    
   138   71  136 1    
   139   71  137 1    
@<TRIPOS>SUBSTRUCTURE
     1 UNK         1 GROUP             0       ****    0 ROOT    
