@<TRIPOS>MOLECULE
3R136
137   139    1
SMALL
USER_CHARGES


@<TRIPOS>ATOM
      1 CA         27.5775   17.9226    4.2424 C.3       0 UNK        -0.1979 
      2 C          27.0019   18.6864    3.0588 C.2       0 UNK         0.4864 
      3 O          25.8230   18.5222    2.7393 O.2       0 UNK        -0.5359 
      4 N          27.8269   19.5106    2.4010 N.am      1 UNK        -0.4318 
      5 CA         27.4371   20.3831    1.2898 C.3       1 UNK         0.0824 
      6 C6         28.6638   20.8423    0.4545 C.3       12 UNK        -0.0944 
      7 S7         30.0860   21.4794    1.4145 S.3       12 UNK        -0.2672 
      8 C8         29.6719   23.2435    1.5540 C.3       12 UNK         0.0333 
      9 C9         30.9126   24.0966    1.7625 C.ar      12 UNK        -0.0807 
     10 C10        31.2907   24.5115    3.0439 C.ar      12 UNK        -0.0894 
     11 C11        32.4138   25.3281    3.2231 C.ar      12 UNK        -0.0804 
     12 C12        33.1638   25.7159    2.1093 C.ar      12 UNK        -0.0824 
     13 C13        32.7827   25.3253    0.8233 C.ar      12 UNK        -0.0762 
     14 C14        31.6657   24.5017    0.6581 C.ar      12 UNK        -0.0782 
     15 C15        33.5681   25.8085   -0.3874 C.3       12 UNK         0.0230 
     16 S16        33.2034   27.5497   -0.7933 S.3       12 UNK        -0.2608 
     17 C17        31.4314   27.4864   -1.2347 C.3       12 UNK        -0.0989 
     18 CA         30.5440   28.5282   -0.5030 C.3       5 UNK         0.0716 
     19 N          29.2359   28.6031   -1.1585 N.am      5 UNK        -0.4135 
     20 C          28.2564   29.4752   -0.8870 C.2       4 UNK         0.5031 
     21 O          28.3802   30.4222   -0.1114 O.2       4 UNK        -0.5229 
     22 CA         26.8888   29.2067   -1.5500 C.3       4 UNK         0.0329 
     23 CB         26.7073   30.1055   -2.7835 C.3       4 UNK        -0.2001 
     24 N          26.6529   27.8028   -1.9314 N.am      4 UNK        -0.4303 
     25 C          26.6874   26.7566   -1.0920 C.2       3 UNK         0.5044 
     26 O          26.9627   26.8566    0.1043 O.2       3 UNK        -0.5152 
     27 CA         26.4672   25.3640   -1.7080 C.3       3 UNK         0.0319 
     28 CB         27.7398   24.9003   -2.4385 C.3       3 UNK        -0.2001 
     29 N          26.1327   24.3686   -0.6861 N.am      3 UNK        -0.4354 
     30 C          24.9633   24.2950   -0.0349 C.2       2 UNK         0.4964 
     31 O          23.9915   25.0040   -0.3029 O.2       2 UNK        -0.5047 
     32 CA         24.8617   23.2502    1.0927 C.3       2 UNK         0.0288 
     33 CB         23.4237   22.7336    1.2956 C.3       2 UNK        -0.2113 
     34 N          25.7565   22.1114    0.8561 N.am      2 UNK        -0.4145 
     35 C          26.5780   21.5747    1.7683 C.2       1 UNK         0.5006 
     36 O          26.6903   21.9964    2.9229 O.2       1 UNK        -0.5103 
     37 C          30.4424   28.2809    1.0264 C.2       5 UNK         0.5055 
     38 O          31.3453   28.6841    1.7534 O.2       5 UNK        -0.5220 
     39 N          29.3373   27.6868    1.5074 N.am      6 UNK        -0.4450 
     40 CA         29.0828   27.4210    2.9276 C.3       6 UNK         0.0367 
     41 CB         27.9775   26.3577    3.0469 C.3       6 UNK        -0.1929 
     42 C          28.7027   28.6624    3.7586 C.2       6 UNK         0.5070 
     43 O          28.5163   28.5255    4.9694 O.2       6 UNK        -0.5237 
     44 N          28.5417   29.8342    3.1259 N.am      7 UNK        -0.4739 
     45 CA         28.1137   31.0902    3.7507 C.3       7 UNK         0.0276 
     46 CB         27.6492   32.0612    2.6500 C.3       7 UNK        -0.1927 
     47 C          29.1815   31.7156    4.6737 C.2       7 UNK         0.5013 
     48 O          29.7199   32.7802    4.3599 O.2       7 UNK        -0.5193 
     49 N          29.4533   31.0440    5.8017 N.am      8 UNK        -0.4253 
     50 CA         30.3126   31.4508    6.9197 C.3       8 UNK         0.0242 
     51 CB         29.6157   32.5525    7.7498 C.3       8 UNK        -0.2000 
     52 C          31.7317   31.8292    6.4609 C.2       8 UNK         0.4948 
     53 O          32.5345   30.9372    6.1881 O.2       8 UNK        -0.5275 
     54 N          32.0043   33.1371    6.3443 N.am      9 UNK        -0.4246 
     55 CA         33.2582   33.7098    5.8455 C.3       9 UNK         0.0261 
     56 CB         33.1861   35.2424    5.9377 C.3       9 UNK        -0.1959 
     57 C          33.6271   33.2734    4.4150 C.2       9 UNK         0.5033 
     58 O          34.8132   33.2767    4.0806 O.2       9 UNK        -0.5390 
     59 N          32.6314   32.8629    3.6127 N.am      10 UNK        -0.4215 
     60 CA         32.8191   32.2828    2.2794 C.3       10 UNK         0.0240 
     61 CB         31.4523   32.0690    1.6119 C.3       10 UNK        -0.1982 
     62 C          33.6455   30.9801    2.2683 C.2       10 UNK         0.4970 
     63 O          34.2505   30.6832    1.2370 O.2       10 UNK        -0.4916 
     64 N          33.7067   30.2613    3.4019 N.am      11 UNK        -0.4279 
     65 CA         34.6005   29.1088    3.5955 C.3       11 UNK         0.1003 
     66 C          36.1158   29.4755    3.6240 C.2       11 UNK         0.5709 
     67 N          36.5050   30.7381    3.7747 N.am      11 UNK        -0.7358 
     68 O          36.9593   28.5904    3.5019 O.2       11 UNK        -0.4999 
     69 C69        34.2316   28.2714    4.8519 C.3       12 UNK        -0.0954 
     70 S70        32.5365   27.5875    4.8435 S.3       12 UNK        -0.2268 
     71 C71        32.8139   25.7962    4.6160 C.3       12 UNK         0.0203 
     72 H72        28.6312   18.1516    4.4014 H         1 UNK         0.0888 
     73 H73        27.0345   18.1769    5.1523 H         1 UNK         0.0888 
     74 H74        27.4850   16.8494    4.0779 H         1 UNK         0.0888 
     75 H75        28.7772   19.6325    2.7223 H         1 UNK         0.3017 
     76 H76        26.8024   19.7889    0.6279 H         1 UNK         0.0873 
     77 H77        28.3782   21.5670   -0.3100 H         1 UNK         0.0745 
     78 H78        29.0355   19.9830   -0.1060 H         1 UNK         0.0745 
     79 H79        29.1480   23.5829    0.6596 H         1 UNK         0.0705 
     80 H80        28.9809   23.3710    2.3874 H         1 UNK         0.0705 
     81 H81        30.7025   24.2086    3.8993 H         1 UNK         0.1334 
     82 H82        34.0299   26.3471    2.2396 H         1 UNK         0.1417 
     83 H83        31.3703   24.1853   -0.3330 H         1 UNK         0.1562 
     84 H84        33.3620   25.1849   -1.2588 H         1 UNK         0.0748 
     85 H85        34.6362   25.7097   -0.1885 H         1 UNK         0.0748 
     86 H86        31.0335   26.4827   -1.0904 H         1 UNK         0.0940 
     87 H87        31.3841   27.6615   -2.3109 H         1 UNK         0.0940 
     88 H88        31.0079   29.5089   -0.6279 H         1 UNK         0.0703 
     89 H89        29.0294   27.8713   -1.8208 H         1 UNK         0.3081 
     90 H90        26.1249   29.4745   -0.8171 H         1 UNK         0.0719 
     91 H91        26.8513   31.1559   -2.5255 H         1 UNK         0.0809 
     92 H92        27.4229   29.8625   -3.5700 H         1 UNK         0.0809 
     93 H93        25.7040   30.0124   -3.1996 H         1 UNK         0.0809 
     94 H94        26.4341   27.6335   -2.9032 H         1 UNK         0.2990 
     95 H95        25.6439   25.4235   -2.4231 H         1 UNK         0.0690 
     96 H96        28.0020   25.5813   -3.2492 H         1 UNK         0.0788 
     97 H97        27.6034   23.9143   -2.8837 H         1 UNK         0.0788 
     98 H98        28.5974   24.8476   -1.7661 H         1 UNK         0.0788 
     99 H99        26.8880   23.7815   -0.3698 H         1 UNK         0.2993 
    100 H100       25.1623   23.7762    2.0017 H         1 UNK         0.0949 
    101 H101       23.3732   22.0193    2.1177 H         1 UNK         0.0767 
    102 H102       22.7409   23.5493    1.5376 H         1 UNK         0.0767 
    103 H103       23.0436   22.2413    0.3998 H         1 UNK         0.0767 
    104 H104       25.7207   21.7097   -0.0716 H         1 UNK         0.3013 
    105 H105       28.5899   27.4197    0.8709 H         1 UNK         0.3121 
    106 H106       29.9968   27.0132    3.3599 H         1 UNK         0.0774 
    107 H107       27.9154   25.9712    4.0648 H         1 UNK         0.0815 
    108 H108       26.9984   26.7664    2.7935 H         1 UNK         0.0815 
    109 H109       28.1595   25.5132    2.3863 H         1 UNK         0.0815 
    110 H110       28.7133   29.8660    2.1285 H         1 UNK         0.2987 
    111 H111       27.2453   30.8743    4.3771 H         1 UNK         0.0949 
    112 H112       27.2924   32.9985    3.0789 H         1 UNK         0.0806 
    113 H113       28.4561   32.3055    1.9586 H         1 UNK         0.0806 
    114 H114       26.8297   31.6391    2.0681 H         1 UNK         0.0806 
    115 H115       29.0413   30.1162    5.8744 H         1 UNK         0.3010 
    116 H116       30.4242   30.5747    7.5605 H         1 UNK         0.0829 
    117 H117       29.3692   33.4315    7.1532 H         1 UNK         0.0813 
    118 H118       28.6855   32.1822    8.1810 H         1 UNK         0.0813 
    119 H119       30.2433   32.8776    8.5810 H         1 UNK         0.0813 
    120 H120       31.2621   33.7896    6.5518 H         1 UNK         0.3038 
    121 H121       34.0578   33.3627    6.5031 H         1 UNK         0.0769 
    122 H122       32.3819   35.6460    5.3210 H         1 UNK         0.0811 
    123 H123       34.1174   35.6979    5.5978 H         1 UNK         0.0811 
    124 H124       33.0227   35.5724    6.9638 H         1 UNK         0.0811 
    125 H125       31.6780   32.8922    3.9660 H         1 UNK         0.3204 
    126 H126       33.3709   33.0151    1.6866 H         1 UNK         0.0748 
    127 H127       31.5680   31.6932    0.5946 H         1 UNK         0.0771 
    128 H128       30.8528   31.3413    2.1579 H         1 UNK         0.0771 
    129 H129       30.8854   32.9982    1.5537 H         1 UNK         0.0771 
    130 H130       33.1853   30.5577    4.2190 H         1 UNK         0.2980 
    131 H131       34.4693   28.4693    2.7227 H         1 UNK         0.0545 
    132 H132       37.4900   30.9482    3.7867 H         1 UNK         0.3459 
    133 H133       35.8303   31.4892    3.8647 H         1 UNK         0.3459 
    134 H134       34.3294   28.8883    5.7467 H         1 UNK         0.0616 
    135 H135       34.9411   27.4538    4.9851 H         1 UNK         0.0616 
    136 H136       33.8540   25.5296    4.8035 H         1 UNK         0.0634 
    137 H137       32.2313   25.2678    5.3719 H         1 UNK         0.0634 
@<TRIPOS>BOND
     1    1    2 1    
     2    1   72 1    
     3    1   73 1    
     4    1   74 1    
     5    2    3 2    
     6    2    4 am   BACKBONE|DICT|INTERRES
     7    4    5 1    
     8    4   75 1    
     9    5    6 1    
    10    5   35 1    
    11    5   76 1    
    12    6    7 1    
    13    6   77 1    
    14    6   78 1    
    15    7    8 1    
    16    8    9 1    
    17    8   79 1    
    18    8   80 1    
    19    9   10 ar   
    20    9   14 ar   
    21   10   11 ar   
    22   10   81 1    
    23   11   12 ar   
    24   11   71 1    
    25   12   13 ar   
    26   12   82 1    
    27   13   14 ar   
    28   13   15 1    
    29   14   83 1    
    30   15   16 1    
    31   15   84 1    
    32   15   85 1    
    33   16   17 1    
    34   17   18 1    
    35   17   86 1    
    36   17   87 1    
    37   18   19 1    
    38   18   37 1    
    39   18   88 1    
    40   19   20 am   BACKBONE|DICT|INTERRES
    41   19   89 1    
    42   20   21 2    
    43   20   22 1    
    44   22   23 1    
    45   22   24 1    
    46   22   90 1    
    47   23   91 1    
    48   23   92 1    
    49   23   93 1    
    50   24   25 am   BACKBONE|DICT|INTERRES
    51   24   94 1    
    52   25   26 2    
    53   25   27 1    
    54   27   28 1    
    55   27   29 1    
    56   27   95 1    
    57   28   96 1    
    58   28   97 1    
    59   28   98 1    
    60   29   30 am   BACKBONE|DICT|INTERRES
    61   29   99 1    
    62   30   31 2    
    63   30   32 1    
    64   32   33 1    
    65   32   34 1    
    66   32  100 1    
    67   33  101 1    
    68   33  102 1    
    69   33  103 1    
    70   34   35 am   BACKBONE|DICT|INTERRES
    71   34  104 1    
    72   35   36 2    
    73   37   38 2    
    74   37   39 am   BACKBONE|DICT|INTERRES
    75   39   40 1    
    76   39  105 1    
    77   40   41 1    
    78   40   42 1    
    79   40  106 1    
    80   41  107 1    
    81   41  108 1    
    82   41  109 1    
    83   42   43 2    
    84   42   44 am   BACKBONE|DICT|INTERRES
    85   44   45 1    
    86   44  110 1    
    87   45   46 1    
    88   45   47 1    
    89   45  111 1    
    90   46  112 1    
    91   46  113 1    
    92   46  114 1    
    93   47   48 2    
    94   47   49 am   BACKBONE|DICT|INTERRES
    95   49   50 1    
    96   49  115 1    
    97   50   51 1    
    98   50   52 1    
    99   50  116 1    
   100   51  117 1    
   101   51  118 1    
   102   51  119 1    
   103   52   53 2    
   104   52   54 am   BACKBONE|DICT|INTERRES
   105   54   55 1    
   106   54  120 1    
   107   55   56 1    
   108   55   57 1    
   109   55  121 1    
   110   56  122 1    
   111   56  123 1    
   112   56  124 1    
   113   57   58 2    
   114   57   59 am   BACKBONE|DICT|INTERRES
   115   59   60 1    
   116   59  125 1    
   117   60   61 1    
   118   60   62 1    
   119   60  126 1    
   120   61  127 1    
   121   61  128 1    
   122   61  129 1    
   123   62   63 2    
   124   62   64 am   BACKBONE|DICT|INTERRES
   125   64   65 1    
   126   64  130 1    
   127   65   66 1    
   128   65   69 1    
   129   65  131 1    
   130   66   67 am   BACKBONE|DICT|INTERRES
   131   66   68 2    
   132   67  132 1    
   133   67  133 1    
   134   69   70 1    
   135   69  134 1    
   136   69  135 1    
   137   70   71 1    
   138   71  136 1    
   139   71  137 1    
@<TRIPOS>SUBSTRUCTURE
     1 UNK         1 GROUP             0       ****    0 ROOT    
