@<TRIPOS>MOLECULE
3R136
137   139    1
SMALL
USER_CHARGES


@<TRIPOS>ATOM
      1 CA         28.3454   17.7465    0.3628 C.3       0 UNK        -0.1979 
      2 C          28.8632   18.8762   -0.5155 C.2       0 UNK         0.4864 
      3 O          29.1076   18.6642   -1.7045 O.2       0 UNK        -0.5359 
      4 N          29.0378   20.0711    0.0622 N.am      1 UNK        -0.4318 
      5 CA         29.4694   21.2829   -0.6405 C.3       1 UNK         0.0824 
      6 C6         30.0017   22.3561    0.3420 C.3       12 UNK        -0.0944 
      7 S7         31.6205   21.8844    1.0349 S.3       12 UNK        -0.2672 
      8 C8         31.1843   21.3229    2.7136 C.3       12 UNK         0.0333 
      9 C9         30.7673   22.4599    3.6402 C.ar      12 UNK        -0.0807 
     10 C10        31.6062   23.5623    3.8322 C.ar      12 UNK        -0.0894 
     11 C11        31.2458   24.5865    4.7122 C.ar      12 UNK        -0.0804 
     12 C12        30.0488   24.4925    5.4267 C.ar      12 UNK        -0.0824 
     13 C13        29.1933   23.4038    5.2334 C.ar      12 UNK        -0.0762 
     14 C14        29.5570   22.3920    4.3381 C.ar      12 UNK        -0.0782 
     15 C15        27.8799   23.3105    5.9956 C.3       12 UNK         0.0230 
     16 S16        26.5439   24.2105    5.1453 S.3       12 UNK        -0.2608 
     17 C17        26.7997   25.9222    5.7291 C.3       12 UNK        -0.0989 
     18 CA         27.4076   26.8549    4.6505 C.3       5 UNK         0.0716 
     19 N          26.5776   26.9122    3.4452 N.am      5 UNK        -0.4135 
     20 C          26.8505   27.5963    2.3272 C.2       4 UNK         0.5031 
     21 O          27.8039   28.3697    2.1937 O.2       4 UNK        -0.5229 
     22 CA         25.8854   27.3681    1.1508 C.3       4 UNK         0.0329 
     23 CB         24.8323   28.4835    1.0610 C.3       4 UNK        -0.2001 
     24 N          26.6112   27.2831   -0.1166 N.am      4 UNK        -0.4303 
     25 C          27.3983   26.2573   -0.4619 C.2       3 UNK         0.5044 
     26 O          27.5387   25.2358    0.2154 O.2       3 UNK        -0.5152 
     27 CA         28.1894   26.4187   -1.7694 C.3       3 UNK         0.0319 
     28 CB         29.5743   27.0219   -1.4811 C.3       3 UNK        -0.2001 
     29 N          28.3605   25.1289   -2.4365 N.am      3 UNK        -0.4354 
     30 C          27.3937   24.4757   -3.0968 C.2       2 UNK         0.4964 
     31 O          26.2789   24.9468   -3.3259 O.2       2 UNK        -0.5047 
     32 CA         27.7261   23.0530   -3.5804 C.3       2 UNK         0.0288 
     33 CB         28.3124   23.0876   -5.0015 C.3       2 UNK        -0.2113 
     34 N          28.6587   22.3620   -2.6843 N.am      2 UNK        -0.4145 
     35 C          28.3177   21.8498   -1.4929 C.2       1 UNK         0.5006 
     36 O          27.1642   21.8363   -1.0539 O.2       1 UNK        -0.5103 
     37 C          27.6690   28.2553    5.2386 C.2       5 UNK         0.5055 
     38 O          26.7381   28.8773    5.7549 O.2       5 UNK        -0.5220 
     39 N          28.9279   28.7083    5.1463 N.am      6 UNK        -0.4450 
     40 CA         29.4521   29.9869    5.6405 C.3       6 UNK         0.0367 
     41 CB         29.4647   30.0064    7.1836 C.3       6 UNK        -0.1929 
     42 C          28.7643   31.2275    5.0322 C.2       6 UNK         0.5070 
     43 O          28.6763   32.2631    5.6940 O.2       6 UNK        -0.5237 
     44 N          28.3070   31.1210    3.7744 N.am      7 UNK        -0.4739 
     45 CA         27.7051   32.2283    3.0175 C.3       7 UNK         0.0276 
     46 CB         26.9717   31.6624    1.7941 C.3       7 UNK        -0.1927 
     47 C          28.7164   33.3138    2.5990 C.2       7 UNK         0.5013 
     48 O          28.3112   34.4355    2.2912 O.2       7 UNK        -0.5193 
     49 N          30.0052   32.9648    2.6176 N.am      8 UNK        -0.4253 
     50 CA         31.1518   33.8562    2.5045 C.3       8 UNK         0.0242 
     51 CB         31.7964   33.6809    1.1190 C.3       8 UNK        -0.2000 
     52 C          32.1321   33.4607    3.6141 C.2       8 UNK         0.4948 
     53 O          32.0820   32.3206    4.0851 O.2       8 UNK        -0.5275 
     54 N          33.0362   34.3773    3.9846 N.am      9 UNK        -0.4246 
     55 CA         34.0418   34.1792    5.0399 C.3       9 UNK         0.0261 
     56 CB         34.8134   35.4903    5.2624 C.3       9 UNK        -0.1959 
     57 C          35.0197   33.0170    4.7766 C.2       9 UNK         0.5033 
     58 O          35.4868   32.3917    5.7292 O.2       9 UNK        -0.5390 
     59 N          35.2879   32.7368    3.4948 N.am      10 UNK        -0.4215 
     60 CA         36.0882   31.6019    3.0293 C.3       10 UNK         0.0240 
     61 CB         36.8085   32.0139    1.7328 C.3       10 UNK        -0.1982 
     62 C          35.2560   30.3222    2.8030 C.2       10 UNK         0.4970 
     63 O          35.8378   29.3039    2.4257 O.2       10 UNK        -0.4916 
     64 N          33.9308   30.3855    3.0060 N.am      11 UNK        -0.4279 
     65 CA         32.9530   29.3392    2.6735 C.3       11 UNK         0.1003 
     66 C          32.8634   29.0643    1.1384 C.2       11 UNK         0.5709 
     67 N          32.3894   27.8994    0.7196 N.am      11 UNK        -0.7358 
     68 O          33.1750   29.9242    0.3158 O.2       11 UNK        -0.4999 
     69 C69        33.1262   28.0753    3.5675 C.3       12 UNK        -0.0954 
     70 S70        31.5735   27.1502    3.7957 S.3       12 UNK        -0.2268 
     71 C71        32.1433   25.8015    4.8717 C.3       12 UNK         0.0203 
     72 H72        27.3971   17.3750   -0.0245 H         1 UNK         0.0888 
     73 H73        29.0573   16.9216    0.3714 H         1 UNK         0.0888 
     74 H74        28.1884   18.0689    1.3921 H         1 UNK         0.0888 
     75 H75        28.7792   20.1968    1.0291 H         1 UNK         0.3017 
     76 H76        30.2803   21.0060   -1.3187 H         1 UNK         0.0873 
     77 H77        30.1459   23.3115   -0.1668 H         1 UNK         0.0745 
     78 H78        29.2847   22.5523    1.1418 H         1 UNK         0.0745 
     79 H79        30.4044   20.5636    2.6454 H         1 UNK         0.0705 
     80 H80        32.0534   20.8271    3.1478 H         1 UNK         0.0705 
     81 H81        32.5383   23.6258    3.2873 H         1 UNK         0.1334 
     82 H82        29.7754   25.2782    6.1171 H         1 UNK         0.1417 
     83 H83        28.8997   21.5450    4.1952 H         1 UNK         0.1562 
     84 H84        28.0008   23.6795    7.0151 H         1 UNK         0.0748 
     85 H85        27.5829   22.2651    6.0928 H         1 UNK         0.0748 
     86 H86        27.4260   25.9107    6.6229 H         1 UNK         0.0940 
     87 H87        25.8311   26.3052    6.0574 H         1 UNK         0.0940 
     88 H88        28.3643   26.4318    4.3392 H         1 UNK         0.0703 
     89 H89        25.7658   26.3127    3.4574 H         1 UNK         0.3081 
     90 H90        25.3641   26.4210    1.3076 H         1 UNK         0.0719 
     91 H91        25.2693   29.4269    0.7366 H         1 UNK         0.0809 
     92 H92        24.0469   28.2239    0.3509 H         1 UNK         0.0809 
     93 H93        24.3520   28.6546    2.0255 H         1 UNK         0.0809 
     94 H94        26.5891   28.1021   -0.7061 H         1 UNK         0.2990 
     95 H95        27.6452   27.0897   -2.4379 H         1 UNK         0.0690 
     96 H96        30.1427   27.1711   -2.3993 H         1 UNK         0.0788 
     97 H97        30.1613   26.3824   -0.8202 H         1 UNK         0.0788 
     98 H98        29.4842   27.9940   -0.9937 H         1 UNK         0.0788 
     99 H99        29.2338   24.6524   -2.2734 H         1 UNK         0.2993 
    100 H100       26.7910   22.4886   -3.6108 H         1 UNK         0.0949 
    101 H101       27.6257   23.5770   -5.6938 H         1 UNK         0.0767 
    102 H102       29.2563   23.6332   -5.0386 H         1 UNK         0.0767 
    103 H103       28.4901   22.0812   -5.3816 H         1 UNK         0.0767 
    104 H104       29.6222   22.3103   -2.9839 H         1 UNK         0.3013 
    105 H105       29.6023   28.1317    4.6572 H         1 UNK         0.3121 
    106 H106       30.4902   30.0354    5.3069 H         1 UNK         0.0774 
    107 H107       29.9822   30.8897    7.5599 H         1 UNK         0.0815 
    108 H108       28.4552   30.0208    7.5955 H         1 UNK         0.0815 
    109 H109       29.9809   29.1356    7.5874 H         1 UNK         0.0815 
    110 H110       28.3677   30.2241    3.3039 H         1 UNK         0.2987 
    111 H111       26.9665   32.7149    3.6586 H         1 UNK         0.0949 
    112 H112       27.6394   31.0919    1.1470 H         1 UNK         0.0806 
    113 H113       26.1605   31.0074    2.1081 H         1 UNK         0.0806 
    114 H114       26.5301   32.4590    1.1936 H         1 UNK         0.0806 
    115 H115       30.2360   32.0445    2.9685 H         1 UNK         0.3010 
    116 H116       30.8473   34.8948    2.6514 H         1 UNK         0.0829 
    117 H117       31.0887   33.9159    0.3237 H         1 UNK         0.0813 
    118 H118       32.6529   34.3445    0.9950 H         1 UNK         0.0813 
    119 H119       32.1465   32.6593    0.9610 H         1 UNK         0.0813 
    120 H120       33.0185   35.2860    3.5427 H         1 UNK         0.3038 
    121 H121       33.5034   33.9413    5.9599 H         1 UNK         0.0769 
    122 H122       34.1453   36.3004    5.5555 H         1 UNK         0.0811 
    123 H123       35.3487   35.8025    4.3648 H         1 UNK         0.0811 
    124 H124       35.5508   35.3786    6.0588 H         1 UNK         0.0811 
    125 H125       34.8641   33.3148    2.7836 H         1 UNK         0.3204 
    126 H126       36.8478   31.3641    3.7771 H         1 UNK         0.0748 
    127 H127       37.4280   32.8978    1.8863 H         1 UNK         0.0771 
    128 H128       37.4667   31.2190    1.3792 H         1 UNK         0.0771 
    129 H129       36.1023   32.2323    0.9304 H         1 UNK         0.0771 
    130 H130       33.5212   31.2455    3.3544 H         1 UNK         0.2980 
    131 H131       31.9930   29.7907    2.9254 H         1 UNK         0.0545 
    132 H132       32.3184   27.7226   -0.2689 H         1 UNK         0.3459 
    133 H133       32.0978   27.2028    1.3888 H         1 UNK         0.3459 
    134 H134       33.8939   27.4131    3.1631 H         1 UNK         0.0616 
    135 H135       33.4695   28.3658    4.5619 H         1 UNK         0.0616 
    136 H136       32.1485   26.1410    5.9085 H         1 UNK         0.0634 
    137 H137       33.1733   25.5387    4.6251 H         1 UNK         0.0634 
@<TRIPOS>BOND
     1    1    2 1    
     2    1   72 1    
     3    1   73 1    
     4    1   74 1    
     5    2    3 2    
     6    2    4 am   BACKBONE|DICT|INTERRES
     7    4    5 1    
     8    4   75 1    
     9    5    6 1    
    10    5   35 1    
    11    5   76 1    
    12    6    7 1    
    13    6   77 1    
    14    6   78 1    
    15    7    8 1    
    16    8    9 1    
    17    8   79 1    
    18    8   80 1    
    19    9   10 ar   
    20    9   14 ar   
    21   10   11 ar   
    22   10   81 1    
    23   11   12 ar   
    24   11   71 1    
    25   12   13 ar   
    26   12   82 1    
    27   13   14 ar   
    28   13   15 1    
    29   14   83 1    
    30   15   16 1    
    31   15   84 1    
    32   15   85 1    
    33   16   17 1    
    34   17   18 1    
    35   17   86 1    
    36   17   87 1    
    37   18   19 1    
    38   18   37 1    
    39   18   88 1    
    40   19   20 am   BACKBONE|DICT|INTERRES
    41   19   89 1    
    42   20   21 2    
    43   20   22 1    
    44   22   23 1    
    45   22   24 1    
    46   22   90 1    
    47   23   91 1    
    48   23   92 1    
    49   23   93 1    
    50   24   25 am   BACKBONE|DICT|INTERRES
    51   24   94 1    
    52   25   26 2    
    53   25   27 1    
    54   27   28 1    
    55   27   29 1    
    56   27   95 1    
    57   28   96 1    
    58   28   97 1    
    59   28   98 1    
    60   29   30 am   BACKBONE|DICT|INTERRES
    61   29   99 1    
    62   30   31 2    
    63   30   32 1    
    64   32   33 1    
    65   32   34 1    
    66   32  100 1    
    67   33  101 1    
    68   33  102 1    
    69   33  103 1    
    70   34   35 am   BACKBONE|DICT|INTERRES
    71   34  104 1    
    72   35   36 2    
    73   37   38 2    
    74   37   39 am   BACKBONE|DICT|INTERRES
    75   39   40 1    
    76   39  105 1    
    77   40   41 1    
    78   40   42 1    
    79   40  106 1    
    80   41  107 1    
    81   41  108 1    
    82   41  109 1    
    83   42   43 2    
    84   42   44 am   BACKBONE|DICT|INTERRES
    85   44   45 1    
    86   44  110 1    
    87   45   46 1    
    88   45   47 1    
    89   45  111 1    
    90   46  112 1    
    91   46  113 1    
    92   46  114 1    
    93   47   48 2    
    94   47   49 am   BACKBONE|DICT|INTERRES
    95   49   50 1    
    96   49  115 1    
    97   50   51 1    
    98   50   52 1    
    99   50  116 1    
   100   51  117 1    
   101   51  118 1    
   102   51  119 1    
   103   52   53 2    
   104   52   54 am   BACKBONE|DICT|INTERRES
   105   54   55 1    
   106   54  120 1    
   107   55   56 1    
   108   55   57 1    
   109   55  121 1    
   110   56  122 1    
   111   56  123 1    
   112   56  124 1    
   113   57   58 2    
   114   57   59 am   BACKBONE|DICT|INTERRES
   115   59   60 1    
   116   59  125 1    
   117   60   61 1    
   118   60   62 1    
   119   60  126 1    
   120   61  127 1    
   121   61  128 1    
   122   61  129 1    
   123   62   63 2    
   124   62   64 am   BACKBONE|DICT|INTERRES
   125   64   65 1    
   126   64  130 1    
   127   65   66 1    
   128   65   69 1    
   129   65  131 1    
   130   66   67 am   BACKBONE|DICT|INTERRES
   131   66   68 2    
   132   67  132 1    
   133   67  133 1    
   134   69   70 1    
   135   69  134 1    
   136   69  135 1    
   137   70   71 1    
   138   71  136 1    
   139   71  137 1    
@<TRIPOS>SUBSTRUCTURE
     1 UNK         1 GROUP             0       ****    0 ROOT    
