@<TRIPOS>MOLECULE
3R136
137   139    1
SMALL
USER_CHARGES


@<TRIPOS>ATOM
      1 CA         33.3005   19.8331   -2.1025 C.3       0 UNK        -0.1979 
      2 C          32.9837   21.1429   -1.3954 C.2       0 UNK         0.4864 
      3 O          33.4849   22.1931   -1.8007 O.2       0 UNK        -0.5359 
      4 N          32.1630   21.0881   -0.3381 N.am      1 UNK        -0.4318 
      5 CA         31.6949   22.2536    0.4173 C.3       1 UNK         0.0824 
      6 C6         31.1280   21.8271    1.7948 C.3       12 UNK        -0.0944 
      7 S7         31.1164   23.1955    2.9994 S.3       12 UNK        -0.2672 
      8 C8         29.3249   23.5306    3.1197 C.3       12 UNK         0.0333 
      9 C9         28.9307   24.7595    3.9422 C.ar      12 UNK        -0.0807 
     10 C10        29.8551   25.7171    4.3823 C.ar      12 UNK        -0.0894 
     11 C11        29.4434   26.8107    5.1502 C.ar      12 UNK        -0.0804 
     12 C12        28.0903   26.9642    5.4635 C.ar      12 UNK        -0.0824 
     13 C13        27.1532   26.0277    5.0174 C.ar      12 UNK        -0.0762 
     14 C14        27.5804   24.9318    4.2617 C.ar      12 UNK        -0.0782 
     15 C15        25.6789   26.1829    5.3607 C.3       12 UNK         0.0230 
     16 S16        24.6969   26.6822    3.9116 S.3       12 UNK        -0.2608 
     17 C17        25.2213   28.4149    3.6832 C.3       12 UNK        -0.0989 
     18 CA         26.3243   28.5869    2.6034 C.3       5 UNK         0.0716 
     19 N          25.9772   28.0213    1.2885 N.am      5 UNK        -0.4135 
     20 C          24.9315   28.3182    0.5002 C.2       4 UNK         0.5031 
     21 O          24.1405   29.2312    0.7385 O.2       4 UNK        -0.5229 
     22 CA         24.7471   27.5028   -0.7964 C.3       4 UNK         0.0329 
     23 CB         25.1981   28.3306   -2.0114 C.3       4 UNK        -0.2001 
     24 N          25.4694   26.2294   -0.7953 N.am      4 UNK        -0.4303 
     25 C          25.1723   25.1723   -0.0265 C.2       3 UNK         0.5044 
     26 O          24.1431   25.0891    0.6438 O.2       3 UNK        -0.5152 
     27 CA         26.1964   24.0180    0.0271 C.3       3 UNK         0.0319 
     28 CB         25.6290   22.7596   -0.6501 C.3       3 UNK        -0.2001 
     29 N          27.5200   24.3048   -0.5460 N.am      3 UNK        -0.4354 
     30 C          28.3616   25.2749   -0.1636 C.2       2 UNK         0.4964 
     31 O          28.0958   26.1073    0.7050 O.2       2 UNK        -0.5047 
     32 CA         29.7261   25.3072   -0.8717 C.3       2 UNK         0.0288 
     33 CB         30.3363   26.7183   -0.8813 C.3       2 UNK        -0.2113 
     34 N          30.6608   24.3842   -0.2301 N.am      2 UNK        -0.4145 
     35 C          30.6622   23.0560   -0.4036 C.2       1 UNK         0.5006 
     36 O          29.8766   22.4647   -1.1510 O.2       1 UNK        -0.5103 
     37 C          26.8126   30.0518    2.5683 C.2       5 UNK         0.5055 
     38 O          27.6232   30.4264    3.4163 O.2       5 UNK        -0.5220 
     39 N          26.3277   30.8538    1.6093 N.am      6 UNK        -0.4450 
     40 CA         26.6698   32.2663    1.4082 C.3       6 UNK         0.0367 
     41 CB         25.7894   32.8442    0.2890 C.3       6 UNK        -0.1929 
     42 C          28.1578   32.5098    1.1008 C.2       6 UNK         0.5070 
     43 O          28.6880   33.5624    1.4597 O.2       6 UNK        -0.5237 
     44 N          28.8186   31.5257    0.4767 N.am      7 UNK        -0.4739 
     45 CA         30.2658   31.4851    0.2678 C.3       7 UNK         0.0276 
     46 CB         30.5775   30.5331   -0.8985 C.3       7 UNK        -0.1927 
     47 C          30.9787   31.0766    1.5701 C.2       7 UNK         0.5013 
     48 O          31.5079   29.9674    1.6719 O.2       7 UNK        -0.5193 
     49 N          30.9683   31.9912    2.5502 N.am      8 UNK        -0.4253 
     50 CA         31.4888   31.8176    3.9120 C.3       8 UNK         0.0242 
     51 CB         31.2479   33.1075    4.7116 C.3       8 UNK        -0.2000 
     52 C          32.9671   31.3976    3.9996 C.2       8 UNK         0.4948 
     53 O          33.3579   30.8032    5.0023 O.2       8 UNK        -0.5275 
     54 N          33.7456   31.6519    2.9374 N.am      9 UNK        -0.4246 
     55 CA         35.1204   31.1795    2.7448 C.3       9 UNK         0.0261 
     56 CB         35.6703   31.7670    1.4346 C.3       9 UNK        -0.1959 
     57 C          35.2787   29.6440    2.7549 C.2       9 UNK         0.5033 
     58 O          36.3932   29.1660    2.9707 O.2       9 UNK        -0.5390 
     59 N          34.1833   28.8953    2.5454 N.am      10 UNK        -0.4215 
     60 CA         34.1293   27.4420    2.7312 C.3       10 UNK         0.0240 
     61 CB         32.8438   26.8962    2.0871 C.3       10 UNK        -0.1982 
     62 C          34.2245   27.0054    4.2086 C.2       10 UNK         0.4970 
     63 O          34.5783   25.8533    4.4620 O.2       10 UNK        -0.4916 
     64 N          33.9130   27.9113    5.1443 N.am      11 UNK        -0.4279 
     65 CA         34.0162   27.7155    6.5950 C.3       11 UNK         0.1003 
     66 C          35.3016   28.3788    7.1599 C.2       11 UNK         0.5709 
     67 N          35.7194   27.9854    8.3560 N.am      11 UNK        -0.7358 
     68 O          35.9201   29.2471    6.5468 O.2       11 UNK        -0.4999 
     69 C69        32.7420   28.2394    7.3124 C.3       12 UNK        -0.0954 
     70 S70        31.3382   27.0990    7.1049 S.3       12 UNK        -0.2268 
     71 C71        30.4758   27.8005    5.6654 C.3       12 UNK         0.0203 
     72 H72        34.3742   19.6479   -2.0863 H         1 UNK         0.0888 
     73 H73        32.8032   18.9849   -1.6322 H         1 UNK         0.0888 
     74 H74        32.9780   19.8811   -3.1422 H         1 UNK         0.0888 
     75 H75        31.7566   20.2020   -0.0741 H         1 UNK         0.3017 
     76 H76        32.5660   22.8914    0.5863 H         1 UNK         0.0873 
     77 H77        30.1341   21.3844    1.7007 H         1 UNK         0.0745 
     78 H78        31.7573   21.0474    2.2275 H         1 UNK         0.0745 
     79 H79        28.9162   23.6420    2.1168 H         1 UNK         0.0705 
     80 H80        28.8473   22.6493    3.5505 H         1 UNK         0.0705 
     81 H81        30.9063   25.6152    4.1555 H         1 UNK         0.1334 
     82 H82        27.7694   27.8081    6.0588 H         1 UNK         0.1417 
     83 H83        26.8516   24.2093    3.9195 H         1 UNK         0.1562 
     84 H84        25.5357   26.9018    6.1689 H         1 UNK         0.0748 
     85 H85        25.2962   25.2309    5.7317 H         1 UNK         0.0748 
     86 H86        25.5616   28.8072    4.6436 H         1 UNK         0.0940 
     87 H87        24.3378   29.0003    3.4230 H         1 UNK         0.0940 
     88 H88        27.1895   28.0045    2.9233 H         1 UNK         0.0703 
     89 H89        26.6081   27.2833    0.9847 H         1 UNK         0.3081 
     90 H90        23.6809   27.2900   -0.8992 H         1 UNK         0.0719 
     91 H91        26.2617   28.5687   -1.9675 H         1 UNK         0.0809 
     92 H92        25.0100   27.8001   -2.9451 H         1 UNK         0.0809 
     93 H93        24.6548   29.2753   -2.0643 H         1 UNK         0.0809 
     94 H94        26.3276   26.1948   -1.3248 H         1 UNK         0.2990 
     95 H95        26.3511   23.7935    1.0844 H         1 UNK         0.0690 
     96 H96        26.2938   21.9050   -0.5215 H         1 UNK         0.0788 
     97 H97        25.4787   22.9118   -1.7196 H         1 UNK         0.0788 
     98 H98        24.6647   22.4830   -0.2212 H         1 UNK         0.0788 
     99 H99        27.8591   23.6406   -1.2309 H         1 UNK         0.2993 
    100 H100       29.5826   25.0023   -1.9110 H         1 UNK         0.0949 
    101 H101       29.6788   27.4086   -1.4102 H         1 UNK         0.0767 
    102 H102       30.4829   27.1097    0.1267 H         1 UNK         0.0767 
    103 H103       31.2996   26.7342   -1.3915 H         1 UNK         0.0767 
    104 H104       31.2981   24.7869    0.4412 H         1 UNK         0.3013 
    105 H105       25.5934   30.4680    1.0229 H         1 UNK         0.3121 
    106 H106       26.4395   32.7948    2.3355 H         1 UNK         0.0774 
    107 H107       25.9561   32.3336   -0.6604 H         1 UNK         0.0815 
    108 H108       26.0020   33.9028    0.1322 H         1 UNK         0.0815 
    109 H109       24.7302   32.7610    0.5336 H         1 UNK         0.0815 
    110 H110       28.3063   30.6861    0.2499 H         1 UNK         0.2987 
    111 H111       30.6194   32.4807   -0.0101 H         1 UNK         0.0949 
    112 H112       30.2254   29.5249   -0.6897 H         1 UNK         0.0806 
    113 H113       30.1092   30.8690   -1.8238 H         1 UNK         0.0806 
    114 H114       31.6515   30.4733   -1.0797 H         1 UNK         0.0806 
    115 H115       30.4485   32.8437    2.3708 H         1 UNK         0.3010 
    116 H116       30.9058   31.0169    4.3724 H         1 UNK         0.0829 
    117 H117       30.1869   33.3554    4.7543 H         1 UNK         0.0813 
    118 H118       31.5951   33.0007    5.7405 H         1 UNK         0.0813 
    119 H119       31.7751   33.9568    4.2753 H         1 UNK         0.0813 
    120 H120       33.3282   32.1464    2.1628 H         1 UNK         0.3038 
    121 H121       35.7162   31.5665    3.5741 H         1 UNK         0.0769 
    122 H122       35.0955   31.4323    0.5701 H         1 UNK         0.0811 
    123 H123       36.7058   31.4628    1.2745 H         1 UNK         0.0811 
    124 H124       35.6550   32.8570    1.4492 H         1 UNK         0.0811 
    125 H125       33.3044   29.3568    2.3240 H         1 UNK         0.3204 
    126 H126       34.9817   27.0024    2.2090 H         1 UNK         0.0748 
    127 H127       32.7791   25.8132    2.1988 H         1 UNK         0.0771 
    128 H128       31.9495   27.3268    2.5395 H         1 UNK         0.0771 
    129 H129       32.8164   27.1161    1.0199 H         1 UNK         0.0771 
    130 H130       33.7164   28.8677    4.8666 H         1 UNK         0.2980 
    131 H131       34.1105   26.6486    6.8071 H         1 UNK         0.0545 
    132 H132       36.5487   28.4049    8.7463 H         1 UNK         0.3459 
    133 H133       35.2241   27.2772    8.8753 H         1 UNK         0.3459 
    134 H134       32.9084   28.3279    8.3875 H         1 UNK         0.0616 
    135 H135       32.4686   29.2380    6.9684 H         1 UNK         0.0616 
    136 H136       31.1881   28.0298    4.8726 H         1 UNK         0.0634 
    137 H137       30.0072   28.7452    5.9454 H         1 UNK         0.0634 
@<TRIPOS>BOND
     1    1    2 1    
     2    1   72 1    
     3    1   73 1    
     4    1   74 1    
     5    2    3 2    
     6    2    4 am   BACKBONE|DICT|INTERRES
     7    4    5 1    
     8    4   75 1    
     9    5    6 1    
    10    5   35 1    
    11    5   76 1    
    12    6    7 1    
    13    6   77 1    
    14    6   78 1    
    15    7    8 1    
    16    8    9 1    
    17    8   79 1    
    18    8   80 1    
    19    9   10 ar   
    20    9   14 ar   
    21   10   11 ar   
    22   10   81 1    
    23   11   12 ar   
    24   11   71 1    
    25   12   13 ar   
    26   12   82 1    
    27   13   14 ar   
    28   13   15 1    
    29   14   83 1    
    30   15   16 1    
    31   15   84 1    
    32   15   85 1    
    33   16   17 1    
    34   17   18 1    
    35   17   86 1    
    36   17   87 1    
    37   18   19 1    
    38   18   37 1    
    39   18   88 1    
    40   19   20 am   BACKBONE|DICT|INTERRES
    41   19   89 1    
    42   20   21 2    
    43   20   22 1    
    44   22   23 1    
    45   22   24 1    
    46   22   90 1    
    47   23   91 1    
    48   23   92 1    
    49   23   93 1    
    50   24   25 am   BACKBONE|DICT|INTERRES
    51   24   94 1    
    52   25   26 2    
    53   25   27 1    
    54   27   28 1    
    55   27   29 1    
    56   27   95 1    
    57   28   96 1    
    58   28   97 1    
    59   28   98 1    
    60   29   30 am   BACKBONE|DICT|INTERRES
    61   29   99 1    
    62   30   31 2    
    63   30   32 1    
    64   32   33 1    
    65   32   34 1    
    66   32  100 1    
    67   33  101 1    
    68   33  102 1    
    69   33  103 1    
    70   34   35 am   BACKBONE|DICT|INTERRES
    71   34  104 1    
    72   35   36 2    
    73   37   38 2    
    74   37   39 am   BACKBONE|DICT|INTERRES
    75   39   40 1    
    76   39  105 1    
    77   40   41 1    
    78   40   42 1    
    79   40  106 1    
    80   41  107 1    
    81   41  108 1    
    82   41  109 1    
    83   42   43 2    
    84   42   44 am   BACKBONE|DICT|INTERRES
    85   44   45 1    
    86   44  110 1    
    87   45   46 1    
    88   45   47 1    
    89   45  111 1    
    90   46  112 1    
    91   46  113 1    
    92   46  114 1    
    93   47   48 2    
    94   47   49 am   BACKBONE|DICT|INTERRES
    95   49   50 1    
    96   49  115 1    
    97   50   51 1    
    98   50   52 1    
    99   50  116 1    
   100   51  117 1    
   101   51  118 1    
   102   51  119 1    
   103   52   53 2    
   104   52   54 am   BACKBONE|DICT|INTERRES
   105   54   55 1    
   106   54  120 1    
   107   55   56 1    
   108   55   57 1    
   109   55  121 1    
   110   56  122 1    
   111   56  123 1    
   112   56  124 1    
   113   57   58 2    
   114   57   59 am   BACKBONE|DICT|INTERRES
   115   59   60 1    
   116   59  125 1    
   117   60   61 1    
   118   60   62 1    
   119   60  126 1    
   120   61  127 1    
   121   61  128 1    
   122   61  129 1    
   123   62   63 2    
   124   62   64 am   BACKBONE|DICT|INTERRES
   125   64   65 1    
   126   64  130 1    
   127   65   66 1    
   128   65   69 1    
   129   65  131 1    
   130   66   67 am   BACKBONE|DICT|INTERRES
   131   66   68 2    
   132   67  132 1    
   133   67  133 1    
   134   69   70 1    
   135   69  134 1    
   136   69  135 1    
   137   70   71 1    
   138   71  136 1    
   139   71  137 1    
@<TRIPOS>SUBSTRUCTURE
     1 UNK         1 GROUP             0       ****    0 ROOT    
