@<TRIPOS>MOLECULE
3R136
137   139    1
SMALL
USER_CHARGES


@<TRIPOS>ATOM
      1 CA         31.7390   21.9376    5.2928 C.3       0 UNK        -0.1979 
      2 C          30.2851   21.9285    4.8440 C.2       0 UNK         0.4864 
      3 O          29.3935   22.1823    5.6543 O.2       0 UNK        -0.5359 
      4 N          30.0424   21.6312    3.5597 N.am      1 UNK        -0.4318 
      5 CA         28.7212   21.5953    2.9203 C.3       1 UNK         0.0824 
      6 C6         28.7491   20.9596    1.4994 C.3       12 UNK        -0.0944 
      7 S7         30.2380   21.2986    0.4906 S.3       12 UNK        -0.2672 
      8 C8         29.8989   22.9486   -0.2188 C.3       12 UNK         0.0333 
      9 C9         30.9188   24.0260    0.1649 C.ar      12 UNK        -0.0807 
     10 C10        31.7084   23.9417    1.3213 C.ar      12 UNK        -0.0894 
     11 C11        32.6115   24.9543    1.6498 C.ar      12 UNK        -0.0804 
     12 C12        32.7434   26.0580    0.8071 C.ar      12 UNK        -0.0824 
     13 C13        31.9680   26.1612   -0.3494 C.ar      12 UNK        -0.0762 
     14 C14        31.0561   25.1465   -0.6620 C.ar      12 UNK        -0.0782 
     15 C15        32.1149   27.3784   -1.2511 C.3       12 UNK         0.0230 
     16 S16        31.5699   28.9051   -0.4213 S.3       12 UNK        -0.2608 
     17 C17        29.7870   28.5797   -0.2240 C.3       12 UNK        -0.0989 
     18 CA         28.9497   29.2706   -1.3240 C.3       5 UNK         0.0716 
     19 N          27.6468   28.6272   -1.4697 N.am      5 UNK        -0.4135 
     20 C          26.9077   28.6648   -2.5860 C.2       4 UNK         0.5031 
     21 O          27.2643   29.2547   -3.6081 O.2       4 UNK        -0.5229 
     22 CA         25.5407   27.9465   -2.5793 C.3       4 UNK         0.0329 
     23 CB         25.2822   27.1860   -3.8980 C.3       4 UNK        -0.2001 
     24 N          25.2973   27.0734   -1.4222 N.am      4 UNK        -0.4303 
     25 C          25.9645   25.9646   -1.0700 C.2       3 UNK         0.5044 
     26 O          26.9296   25.4991   -1.6796 O.2       3 UNK        -0.5152 
     27 CA         25.4501   25.2584    0.1947 C.3       3 UNK         0.0319 
     28 CB         24.8074   23.9091   -0.1655 C.3       3 UNK        -0.2001 
     29 N          26.4889   25.0351    1.2004 N.am      3 UNK        -0.4354 
     30 C          27.3187   25.9441    1.7277 C.2       2 UNK         0.4964 
     31 O          27.3370   27.1271    1.3823 O.2       2 UNK        -0.5047 
     32 CA         28.2696   25.4772    2.8529 C.3       2 UNK         0.0288 
     33 CB         27.6615   25.8053    4.2307 C.3       2 UNK        -0.2113 
     34 N          28.7080   24.0688    2.8131 N.am      2 UNK        -0.4145 
     35 C          27.9761   22.9474    2.9250 C.2       1 UNK         0.5006 
     36 O          26.7476   22.9379    3.0149 O.2       1 UNK        -0.5103 
     37 C          28.7776   30.7698   -1.0271 C.2       5 UNK         0.5055 
     38 O          27.9129   31.1360   -0.2281 O.2       5 UNK        -0.5220 
     39 N          29.6552   31.6008   -1.6061 N.am      6 UNK        -0.4450 
     40 CA         29.7563   33.0350   -1.3122 C.3       6 UNK         0.0367 
     41 CB         30.6777   33.7053   -2.3438 C.3       6 UNK        -0.1929 
     42 C          30.2512   33.3189    0.1189 C.2       6 UNK         0.5070 
     43 O          29.8658   34.3308    0.7039 O.2       6 UNK        -0.5237 
     44 N          31.0707   32.4088    0.6646 N.am      7 UNK        -0.4739 
     45 CA         31.5327   32.4248    2.0558 C.3       7 UNK         0.0276 
     46 CB         32.8538   31.6416    2.1456 C.3       7 UNK        -0.1927 
     47 C          30.5002   31.8389    3.0379 C.2       7 UNK         0.5013 
     48 O          30.6903   31.9626    4.2489 O.2       7 UNK        -0.5193 
     49 N          29.4458   31.1936    2.5144 N.am      8 UNK        -0.4253 
     50 CA         28.4128   30.4537    3.2429 C.3       8 UNK         0.0242 
     51 CB         27.4478   31.4351    3.9469 C.3       8 UNK        -0.2000 
     52 C          29.0383   29.3911    4.1685 C.2       8 UNK         0.4948 
     53 O          29.7777   28.5353    3.6840 O.2       8 UNK        -0.5275 
     54 N          28.7534   29.4727    5.4736 N.am      9 UNK        -0.4246 
     55 CA         29.2478   28.5563    6.5011 C.3       9 UNK         0.0261 
     56 CB         28.3300   28.6549    7.7315 C.3       9 UNK        -0.1959 
     57 C          30.7200   28.7688    6.9027 C.2       9 UNK         0.5033 
     58 O          31.2399   27.9462    7.6602 O.2       9 UNK        -0.5390 
     59 N          31.3811   29.8385    6.4305 N.am      10 UNK        -0.4215 
     60 CA         32.7704   30.1732    6.7724 C.3       10 UNK         0.0240 
     61 CB         33.0061   31.6815    6.5690 C.3       10 UNK        -0.1982 
     62 C          33.7981   29.3001    6.0211 C.2       10 UNK         0.4970 
     63 O          34.6635   29.8254    5.3184 O.2       10 UNK        -0.4916 
     64 N          33.6873   27.9794    6.1967 N.am      11 UNK        -0.4279 
     65 CA         34.6104   26.9626    5.6702 C.3       11 UNK         0.1003 
     66 C          35.9556   26.8580    6.4471 C.2       11 UNK         0.5709 
     67 N          36.1095   27.4817    7.6097 N.am      11 UNK        -0.7358 
     68 O          36.8842   26.2043    5.9779 O.2       11 UNK        -0.4999 
     69 C69        33.9193   25.5774    5.5614 C.3       12 UNK        -0.0954 
     70 S70        32.5716   25.5781    4.3342 S.3       12 UNK        -0.2268 
     71 C71        33.4476   24.8581    2.9136 C.3       12 UNK         0.0203 
     72 H72        31.9167   21.1325    6.0051 H         1 UNK         0.0888 
     73 H73        31.9743   22.8825    5.7818 H         1 UNK         0.0888 
     74 H74        32.4259   21.8108    4.4563 H         1 UNK         0.0888 
     75 H75        30.8093   21.3803    2.9515 H         1 UNK         0.3017 
     76 H76        28.1094   20.9389    3.5438 H         1 UNK         0.0873 
     77 H77        27.8548   21.2063    0.9225 H         1 UNK         0.0745 
     78 H78        28.7103   19.8751    1.6139 H         1 UNK         0.0745 
     79 H79        29.8837   22.8388   -1.3043 H         1 UNK         0.0705 
     80 H80        28.9012   23.2878    0.0608 H         1 UNK         0.0705 
     81 H81        31.6349   23.0914    1.9791 H         1 UNK         0.1334 
     82 H82        33.4388   26.8478    1.0579 H         1 UNK         0.1417 
     83 H83        30.4462   25.2306   -1.5520 H         1 UNK         0.1562 
     84 H84        31.5527   27.2520   -2.1777 H         1 UNK         0.0748 
     85 H85        33.1617   27.4863   -1.5385 H         1 UNK         0.0748 
     86 H86        29.4754   28.8825    0.7773 H         1 UNK         0.0940 
     87 H87        29.6174   27.5034   -0.2513 H         1 UNK         0.0940 
     88 H88        29.4767   29.1595   -2.2748 H         1 UNK         0.0703 
     89 H89        27.2846   28.1558   -0.6502 H         1 UNK         0.3081 
     90 H90        24.7959   28.7408   -2.5110 H         1 UNK         0.0719 
     91 H91        26.0312   26.4130   -4.0730 H         1 UNK         0.0809 
     92 H92        24.3019   26.7095   -3.8964 H         1 UNK         0.0809 
     93 H93        25.3088   27.8615   -4.7540 H         1 UNK         0.0809 
     94 H94        24.5350   27.3660   -0.8256 H         1 UNK         0.2990 
     95 H95        24.6873   25.8834    0.6634 H         1 UNK         0.0690 
     96 H96        24.3690   23.4306    0.7107 H         1 UNK         0.0788 
     97 H97        25.5361   23.2195   -0.5944 H         1 UNK         0.0788 
     98 H98        24.0092   24.0381   -0.8978 H         1 UNK         0.0788 
     99 H99        26.5069   24.1148    1.6302 H         1 UNK         0.2993 
    100 H100       29.1805   26.0688    2.7414 H         1 UNK         0.0949 
    101 H101       27.4227   26.8660    4.3106 H         1 UNK         0.0767 
    102 H102       26.7383   25.2540    4.4110 H         1 UNK         0.0767 
    103 H103       28.3571   25.5636    5.0341 H         1 UNK         0.0767 
    104 H104       29.7053   23.9494    2.7066 H         1 UNK         0.3013 
    105 H105       30.3414   31.2183   -2.2419 H         1 UNK         0.3121 
    106 H106       28.7594   33.4709   -1.4084 H         1 UNK         0.0774 
    107 H107       30.2994   33.5760   -3.3581 H         1 UNK         0.0815 
    108 H108       31.6900   33.3007   -2.3070 H         1 UNK         0.0815 
    109 H109       30.7496   34.7785   -2.1616 H         1 UNK         0.0815 
    110 H110       31.3453   31.6115    0.1073 H         1 UNK         0.2987 
    111 H111       31.7225   33.4572    2.3579 H         1 UNK         0.0949 
    112 H112       32.7169   30.5879    1.8994 H         1 UNK         0.0806 
    113 H113       33.6065   32.0504    1.4714 H         1 UNK         0.0806 
    114 H114       33.2682   31.6843    3.1533 H         1 UNK         0.0806 
    115 H115       29.3586   31.1748    1.5076 H         1 UNK         0.3010 
    116 H116       27.8392   29.9030    2.4952 H         1 UNK         0.0829 
    117 H117       27.0026   32.1209    3.2258 H         1 UNK         0.0813 
    118 H118       26.6236   30.9063    4.4278 H         1 UNK         0.0813 
    119 H119       27.9497   32.0399    4.7032 H         1 UNK         0.0813 
    120 H120       28.1634   30.2298    5.7873 H         1 UNK         0.3038 
    121 H121       29.1796   27.5395    6.1111 H         1 UNK         0.0769 
    122 H122       28.3520   29.6521    8.1729 H         1 UNK         0.0811 
    123 H123       28.6349   27.9496    8.5061 H         1 UNK         0.0811 
    124 H124       27.2963   28.4212    7.4759 H         1 UNK         0.0811 
    125 H125       30.9209   30.4517    5.7654 H         1 UNK         0.3204 
    126 H126       32.9131   29.9747    7.8369 H         1 UNK         0.0748 
    127 H127       32.2720   32.2770    7.1120 H         1 UNK         0.0771 
    128 H128       33.9922   31.9731    6.9327 H         1 UNK         0.0771 
    129 H129       32.9549   31.9633    5.5181 H         1 UNK         0.0771 
    130 H130       32.9223   27.6451    6.7754 H         1 UNK         0.2980 
    131 H131       34.8882   27.2682    4.6596 H         1 UNK         0.0545 
    132 H132       36.9889   27.4073    8.0963 H         1 UNK         0.3459 
    133 H133       35.3552   28.0165    8.0082 H         1 UNK         0.3459 
    134 H134       34.6346   24.7982    5.2907 H         1 UNK         0.0616 
    135 H135       33.5059   25.2816    6.5271 H         1 UNK         0.0616 
    136 H136       33.6925   23.8167    3.1277 H         1 UNK         0.0634 
    137 H137       34.3970   25.3773    2.7718 H         1 UNK         0.0634 
@<TRIPOS>BOND
     1    1    2 1    
     2    1   72 1    
     3    1   73 1    
     4    1   74 1    
     5    2    3 2    
     6    2    4 am   BACKBONE|DICT|INTERRES
     7    4    5 1    
     8    4   75 1    
     9    5    6 1    
    10    5   35 1    
    11    5   76 1    
    12    6    7 1    
    13    6   77 1    
    14    6   78 1    
    15    7    8 1    
    16    8    9 1    
    17    8   79 1    
    18    8   80 1    
    19    9   10 ar   
    20    9   14 ar   
    21   10   11 ar   
    22   10   81 1    
    23   11   12 ar   
    24   11   71 1    
    25   12   13 ar   
    26   12   82 1    
    27   13   14 ar   
    28   13   15 1    
    29   14   83 1    
    30   15   16 1    
    31   15   84 1    
    32   15   85 1    
    33   16   17 1    
    34   17   18 1    
    35   17   86 1    
    36   17   87 1    
    37   18   19 1    
    38   18   37 1    
    39   18   88 1    
    40   19   20 am   BACKBONE|DICT|INTERRES
    41   19   89 1    
    42   20   21 2    
    43   20   22 1    
    44   22   23 1    
    45   22   24 1    
    46   22   90 1    
    47   23   91 1    
    48   23   92 1    
    49   23   93 1    
    50   24   25 am   BACKBONE|DICT|INTERRES
    51   24   94 1    
    52   25   26 2    
    53   25   27 1    
    54   27   28 1    
    55   27   29 1    
    56   27   95 1    
    57   28   96 1    
    58   28   97 1    
    59   28   98 1    
    60   29   30 am   BACKBONE|DICT|INTERRES
    61   29   99 1    
    62   30   31 2    
    63   30   32 1    
    64   32   33 1    
    65   32   34 1    
    66   32  100 1    
    67   33  101 1    
    68   33  102 1    
    69   33  103 1    
    70   34   35 am   BACKBONE|DICT|INTERRES
    71   34  104 1    
    72   35   36 2    
    73   37   38 2    
    74   37   39 am   BACKBONE|DICT|INTERRES
    75   39   40 1    
    76   39  105 1    
    77   40   41 1    
    78   40   42 1    
    79   40  106 1    
    80   41  107 1    
    81   41  108 1    
    82   41  109 1    
    83   42   43 2    
    84   42   44 am   BACKBONE|DICT|INTERRES
    85   44   45 1    
    86   44  110 1    
    87   45   46 1    
    88   45   47 1    
    89   45  111 1    
    90   46  112 1    
    91   46  113 1    
    92   46  114 1    
    93   47   48 2    
    94   47   49 am   BACKBONE|DICT|INTERRES
    95   49   50 1    
    96   49  115 1    
    97   50   51 1    
    98   50   52 1    
    99   50  116 1    
   100   51  117 1    
   101   51  118 1    
   102   51  119 1    
   103   52   53 2    
   104   52   54 am   BACKBONE|DICT|INTERRES
   105   54   55 1    
   106   54  120 1    
   107   55   56 1    
   108   55   57 1    
   109   55  121 1    
   110   56  122 1    
   111   56  123 1    
   112   56  124 1    
   113   57   58 2    
   114   57   59 am   BACKBONE|DICT|INTERRES
   115   59   60 1    
   116   59  125 1    
   117   60   61 1    
   118   60   62 1    
   119   60  126 1    
   120   61  127 1    
   121   61  128 1    
   122   61  129 1    
   123   62   63 2    
   124   62   64 am   BACKBONE|DICT|INTERRES
   125   64   65 1    
   126   64  130 1    
   127   65   66 1    
   128   65   69 1    
   129   65  131 1    
   130   66   67 am   BACKBONE|DICT|INTERRES
   131   66   68 2    
   132   67  132 1    
   133   67  133 1    
   134   69   70 1    
   135   69  134 1    
   136   69  135 1    
   137   70   71 1    
   138   71  136 1    
   139   71  137 1    
@<TRIPOS>SUBSTRUCTURE
     1 UNK         1 GROUP             0       ****    0 ROOT    
