@<TRIPOS>MOLECULE
3R136
137   139    1
SMALL
USER_CHARGES


@<TRIPOS>ATOM
      1 CA         30.1488   21.5595    4.4320 C.3       0 UNK        -0.1979 
      2 C          29.8187   22.6463    3.4198 C.2       0 UNK         0.4864 
      3 O          30.2385   22.5514    2.2665 O.2       0 UNK        -0.5359 
      4 N          29.0750   23.6750    3.8498 N.am      1 UNK        -0.4318 
      5 CA         28.6816   24.8407    3.0448 C.3       1 UNK         0.0824 
      6 C6         28.0583   25.9791    3.9067 C.3       12 UNK        -0.0944 
      7 S7         28.8403   26.2139    5.5468 S.3       12 UNK        -0.2672 
      8 C8         30.0953   27.4895    5.2159 C.3       12 UNK         0.0333 
      9 C9         31.1219   27.0289    4.1944 C.ar      12 UNK        -0.0807 
     10 C10        31.9163   25.9050    4.4373 C.ar      12 UNK        -0.0894 
     11 C11        32.8023   25.4367    3.4626 C.ar      12 UNK        -0.0804 
     12 C12        32.8900   26.1042    2.2365 C.ar      12 UNK        -0.0824 
     13 C13        32.1217   27.2480    1.9968 C.ar      12 UNK        -0.0762 
     14 C14        31.2520   27.7130    2.9858 C.ar      12 UNK        -0.0782 
     15 C15        32.2120   27.9754    0.6648 C.3       12 UNK         0.0230 
     16 S16        30.9296   27.3981   -0.4909 S.3       12 UNK        -0.2608 
     17 C17        29.4158   28.0838    0.2670 C.3       12 UNK        -0.0989 
     18 CA         28.2987   28.3029   -0.7757 C.3       5 UNK         0.0716 
     19 N          27.8468   27.0480   -1.3717 N.am      5 UNK        -0.4135 
     20 C          27.5358   26.9064   -2.6655 C.2       4 UNK         0.5031 
     21 O          27.6093   27.8131   -3.4968 O.2       4 UNK        -0.5229 
     22 CA         27.0613   25.5175   -3.1145 C.3       4 UNK         0.0329 
     23 CB         28.2257   24.5122   -3.1125 C.3       4 UNK        -0.2001 
     24 N          25.9678   24.9985   -2.2952 N.am      4 UNK        -0.4303 
     25 C          24.7204   25.4926   -2.2499 C.2       3 UNK         0.5044 
     26 O          24.3505   26.4776   -2.8894 O.2       3 UNK        -0.5152 
     27 CA         23.6968   24.7414   -1.3741 C.3       3 UNK         0.0319 
     28 CB         22.6640   24.0164   -2.2537 C.3       3 UNK        -0.2001 
     29 N          24.3409   23.7616   -0.4953 N.am      3 UNK        -0.4354 
     30 C          24.8549   24.0502    0.7063 C.2       2 UNK         0.4964 
     31 O          24.6527   25.1140    1.2952 O.2       2 UNK        -0.5047 
     32 CA         25.7462   22.9705    1.3553 C.3       2 UNK         0.0288 
     33 CB         26.3939   22.0006    0.3387 C.3       2 UNK        -0.2113 
     34 N          26.7831   23.5440    2.2201 N.am      2 UNK        -0.4145 
     35 C          27.7250   24.4485    1.8967 C.2       1 UNK         0.5006 
     36 O          27.8652   24.9449    0.7746 O.2       1 UNK        -0.5103 
     37 C          27.0790   29.0022   -0.1568 C.2       5 UNK         0.5055 
     38 O          26.4400   28.4418    0.7354 O.2       5 UNK        -0.5220 
     39 N          26.7799   30.2132   -0.6423 N.am      6 UNK        -0.4450 
     40 CA         25.6371   31.0260   -0.2132 C.3       6 UNK         0.0367 
     41 CB         25.2439   31.9665   -1.3657 C.3       6 UNK        -0.1929 
     42 C          25.8922   31.8317    1.0758 C.2       6 UNK         0.5070 
     43 O          24.9557   32.4475    1.5868 O.2       6 UNK        -0.5237 
     44 N          27.1353   31.8429    1.5697 N.am      7 UNK        -0.4739 
     45 CA         27.5677   32.5666    2.7627 C.3       7 UNK         0.0276 
     46 CB         28.1584   33.9247    2.3414 C.3       7 UNK        -0.1927 
     47 C          28.5980   31.7291    3.5307 C.2       7 UNK         0.5013 
     48 O          29.1382   30.7624    2.9840 O.2       7 UNK        -0.5193 
     49 N          28.8512   32.1272    4.7842 N.am      8 UNK        -0.4253 
     50 CA         29.8492   31.5277    5.6710 C.3       8 UNK         0.0242 
     51 CB         29.6676   32.0922    7.0897 C.3       8 UNK        -0.2000 
     52 C          31.2836   31.7741    5.1744 C.2       8 UNK         0.4948 
     53 O          31.5766   32.8584    4.6638 O.2       8 UNK        -0.5275 
     54 N          32.1540   30.7812    5.3743 N.am      9 UNK        -0.4246 
     55 CA         33.5744   30.8065    5.0441 C.3       9 UNK         0.0261 
     56 CB         33.7751   30.5907    3.5302 C.3       9 UNK        -0.1959 
     57 C          34.2679   29.7028    5.8501 C.2       9 UNK         0.5033 
     58 O          33.5950   28.8025    6.3588 O.2       9 UNK        -0.5390 
     59 N          35.6029   29.7663    5.9123 N.am      10 UNK        -0.4215 
     60 CA         36.4687   28.7631    6.5454 C.3       10 UNK         0.0240 
     61 CB         37.6717   29.4815    7.1862 C.3       10 UNK        -0.1982 
     62 C          36.9136   27.6597    5.5599 C.2       10 UNK         0.4970 
     63 O          37.9670   27.0542    5.7633 O.2       10 UNK        -0.4916 
     64 N          36.1223   27.4378    4.5019 N.am      11 UNK        -0.4279 
     65 CA         36.3524   26.4824    3.4041 C.3       11 UNK         0.1003 
     66 C          37.5537   26.8271    2.4711 C.2       11 UNK         0.5709 
     67 N          38.0974   28.0381    2.5095 N.am      11 UNK        -0.7358 
     68 O          37.9810   25.9979    1.6710 O.2       11 UNK        -0.4999 
     69 C69        36.3568   24.9915    3.8550 C.3       12 UNK        -0.0954 
     70 S70        34.9616   24.5131    4.9320 S.3       12 UNK        -0.2268 
     71 C71        33.6298   24.1886    3.7333 C.3       12 UNK         0.0203 
     72 H72        29.7445   21.7842    5.4189 H         1 UNK         0.0888 
     73 H73        29.7365   20.6052    4.1052 H         1 UNK         0.0888 
     74 H74        31.2288   21.4501    4.5260 H         1 UNK         0.0888 
     75 H75        28.7958   23.7160    4.8200 H         1 UNK         0.3017 
     76 H76        29.5921   25.2258    2.5809 H         1 UNK         0.0873 
     77 H77        28.0803   26.9220    3.3569 H         1 UNK         0.0745 
     78 H78        27.0027   25.7786    4.1018 H         1 UNK         0.0745 
     79 H79        29.5826   28.3865    4.8693 H         1 UNK         0.0705 
     80 H80        30.6024   27.7491    6.1461 H         1 UNK         0.0705 
     81 H81        31.8252   25.3785    5.3775 H         1 UNK         0.1334 
     82 H82        33.5543   25.7336    1.4679 H         1 UNK         0.1417 
     83 H83        30.6529   28.5944    2.8042 H         1 UNK         0.1562 
     84 H84        33.1920   27.8101    0.2146 H         1 UNK         0.0748 
     85 H85        32.1232   29.0531    0.8111 H         1 UNK         0.0748 
     86 H86        29.6639   29.0335    0.7447 H         1 UNK         0.0940 
     87 H87        29.0826   27.4124    1.0602 H         1 UNK         0.0940 
     88 H88        28.7107   28.9518   -1.5521 H         1 UNK         0.0703 
     89 H89        27.7396   26.2656   -0.7320 H         1 UNK         0.3081 
     90 H90        26.6949   25.6077   -4.1395 H         1 UNK         0.0719 
     91 H91        28.6116   24.3377   -2.1069 H         1 UNK         0.0809 
     92 H92        27.9208   23.5508   -3.5262 H         1 UNK         0.0809 
     93 H93        29.0554   24.8762   -3.7203 H         1 UNK         0.0809 
     94 H94        26.1829   24.2062   -1.7102 H         1 UNK         0.2990 
     95 H95        23.1693   25.4850   -0.7726 H         1 UNK         0.0690 
     96 H96        22.1386   24.7209   -2.9002 H         1 UNK         0.0788 
     97 H97        21.9108   23.5129   -1.6474 H         1 UNK         0.0788 
     98 H98        23.1319   23.2705   -2.8975 H         1 UNK         0.0788 
     99 H99        24.5106   22.8453   -0.8858 H         1 UNK         0.2993 
    100 H100       25.0907   22.3885    2.0051 H         1 UNK         0.0949 
    101 H101       27.0438   21.2857    0.8441 H         1 UNK         0.0767 
    102 H102       25.6461   21.4154   -0.1974 H         1 UNK         0.0767 
    103 H103       27.0026   22.5271   -0.3974 H         1 UNK         0.0767 
    104 H104       26.7623   23.2317    3.1803 H         1 UNK         0.3013 
    105 H105       27.3555   30.6013   -1.3768 H         1 UNK         0.3121 
    106 H106       24.7909   30.3642   -0.0149 H         1 UNK         0.0774 
    107 H107       26.0443   32.6671   -1.6070 H         1 UNK         0.0815 
    108 H108       24.3632   32.5563   -1.1071 H         1 UNK         0.0815 
    109 H109       25.0005   31.4076   -2.2696 H         1 UNK         0.0815 
    110 H110       27.8391   31.2470    1.1553 H         1 UNK         0.2987 
    111 H111       26.7151   32.7308    3.4259 H         1 UNK         0.0949 
    112 H112       27.4238   34.5269    1.8065 H         1 UNK         0.0806 
    113 H113       28.4800   34.5042    3.2076 H         1 UNK         0.0806 
    114 H114       29.0261   33.8007    1.6921 H         1 UNK         0.0806 
    115 H115       28.3852   32.9525    5.1318 H         1 UNK         0.3010 
    116 H116       29.6644   30.4546    5.7056 H         1 UNK         0.0829 
    117 H117       29.8260   33.1712    7.1182 H         1 UNK         0.0813 
    118 H118       28.6681   31.8882    7.4746 H         1 UNK         0.0813 
    119 H119       30.3781   31.6411    7.7838 H         1 UNK         0.0813 
    120 H120       31.8743   29.9350    5.8566 H         1 UNK         0.3038 
    121 H121       33.9921   31.7706    5.3421 H         1 UNK         0.0769 
    122 H122       34.8296   30.6438    3.2576 H         1 UNK         0.0811 
    123 H123       33.4047   29.6166    3.2119 H         1 UNK         0.0811 
    124 H124       33.2562   31.3501    2.9451 H         1 UNK         0.0811 
    125 H125       36.0726   30.5346    5.4530 H         1 UNK         0.3204 
    126 H126       35.9174   28.2635    7.3449 H         1 UNK         0.0748 
    127 H127       38.2963   28.7833    7.7452 H         1 UNK         0.0771 
    128 H128       38.3046   29.9575    6.4362 H         1 UNK         0.0771 
    129 H129       37.3465   30.2497    7.8882 H         1 UNK         0.0771 
    130 H130       35.2618   27.9605    4.4431 H         1 UNK         0.2980 
    131 H131       35.4898   26.6098    2.7543 H         1 UNK         0.0545 
    132 H132       38.8654   28.2521    1.8930 H         1 UNK         0.3459 
    133 H133       37.7572   28.7331    3.1529 H         1 UNK         0.3459 
    134 H134       37.2768   24.7711    4.3986 H         1 UNK         0.0616 
    135 H135       36.3605   24.3293    2.9877 H         1 UNK         0.0616 
    136 H136       34.0425   23.7800    2.8100 H         1 UNK         0.0634 
    137 H137       32.9776   23.4153    4.1410 H         1 UNK         0.0634 
@<TRIPOS>BOND
     1    1    2 1    
     2    1   72 1    
     3    1   73 1    
     4    1   74 1    
     5    2    3 2    
     6    2    4 am   BACKBONE|DICT|INTERRES
     7    4    5 1    
     8    4   75 1    
     9    5    6 1    
    10    5   35 1    
    11    5   76 1    
    12    6    7 1    
    13    6   77 1    
    14    6   78 1    
    15    7    8 1    
    16    8    9 1    
    17    8   79 1    
    18    8   80 1    
    19    9   10 ar   
    20    9   14 ar   
    21   10   11 ar   
    22   10   81 1    
    23   11   12 ar   
    24   11   71 1    
    25   12   13 ar   
    26   12   82 1    
    27   13   14 ar   
    28   13   15 1    
    29   14   83 1    
    30   15   16 1    
    31   15   84 1    
    32   15   85 1    
    33   16   17 1    
    34   17   18 1    
    35   17   86 1    
    36   17   87 1    
    37   18   19 1    
    38   18   37 1    
    39   18   88 1    
    40   19   20 am   BACKBONE|DICT|INTERRES
    41   19   89 1    
    42   20   21 2    
    43   20   22 1    
    44   22   23 1    
    45   22   24 1    
    46   22   90 1    
    47   23   91 1    
    48   23   92 1    
    49   23   93 1    
    50   24   25 am   BACKBONE|DICT|INTERRES
    51   24   94 1    
    52   25   26 2    
    53   25   27 1    
    54   27   28 1    
    55   27   29 1    
    56   27   95 1    
    57   28   96 1    
    58   28   97 1    
    59   28   98 1    
    60   29   30 am   BACKBONE|DICT|INTERRES
    61   29   99 1    
    62   30   31 2    
    63   30   32 1    
    64   32   33 1    
    65   32   34 1    
    66   32  100 1    
    67   33  101 1    
    68   33  102 1    
    69   33  103 1    
    70   34   35 am   BACKBONE|DICT|INTERRES
    71   34  104 1    
    72   35   36 2    
    73   37   38 2    
    74   37   39 am   BACKBONE|DICT|INTERRES
    75   39   40 1    
    76   39  105 1    
    77   40   41 1    
    78   40   42 1    
    79   40  106 1    
    80   41  107 1    
    81   41  108 1    
    82   41  109 1    
    83   42   43 2    
    84   42   44 am   BACKBONE|DICT|INTERRES
    85   44   45 1    
    86   44  110 1    
    87   45   46 1    
    88   45   47 1    
    89   45  111 1    
    90   46  112 1    
    91   46  113 1    
    92   46  114 1    
    93   47   48 2    
    94   47   49 am   BACKBONE|DICT|INTERRES
    95   49   50 1    
    96   49  115 1    
    97   50   51 1    
    98   50   52 1    
    99   50  116 1    
   100   51  117 1    
   101   51  118 1    
   102   51  119 1    
   103   52   53 2    
   104   52   54 am   BACKBONE|DICT|INTERRES
   105   54   55 1    
   106   54  120 1    
   107   55   56 1    
   108   55   57 1    
   109   55  121 1    
   110   56  122 1    
   111   56  123 1    
   112   56  124 1    
   113   57   58 2    
   114   57   59 am   BACKBONE|DICT|INTERRES
   115   59   60 1    
   116   59  125 1    
   117   60   61 1    
   118   60   62 1    
   119   60  126 1    
   120   61  127 1    
   121   61  128 1    
   122   61  129 1    
   123   62   63 2    
   124   62   64 am   BACKBONE|DICT|INTERRES
   125   64   65 1    
   126   64  130 1    
   127   65   66 1    
   128   65   69 1    
   129   65  131 1    
   130   66   67 am   BACKBONE|DICT|INTERRES
   131   66   68 2    
   132   67  132 1    
   133   67  133 1    
   134   69   70 1    
   135   69  134 1    
   136   69  135 1    
   137   70   71 1    
   138   71  136 1    
   139   71  137 1    
@<TRIPOS>SUBSTRUCTURE
     1 UNK         1 GROUP             0       ****    0 ROOT    
