@<TRIPOS>MOLECULE
3R136
137   139    1
SMALL
USER_CHARGES


@<TRIPOS>ATOM
      1 CA         26.7525   21.3654    0.5239 C.3       0 UNK        -0.1979 
      2 C          27.2296   22.6468   -0.1414 C.2       0 UNK         0.4864 
      3 O          26.5468   23.6672   -0.0588 O.2       0 UNK        -0.5359 
      4 N          28.3822   22.5956   -0.8264 N.am      1 UNK        -0.4318 
      5 CA         29.0894   23.7283   -1.4507 C.3       1 UNK         0.0824 
      6 C6         29.6522   24.7188   -0.3873 C.3       12 UNK        -0.0944 
      7 S7         31.3657   25.2319   -0.7520 S.3       12 UNK        -0.2672 
      8 C8         32.3429   23.8996    0.0152 C.3       12 UNK         0.0333 
      9 C9         32.2341   23.9053    1.5327 C.ar      12 UNK        -0.0807 
     10 C10        32.9950   24.7967    2.2928 C.ar      12 UNK        -0.0894 
     11 C11        32.8951   24.8087    3.6879 C.ar      12 UNK        -0.0804 
     12 C12        32.0166   23.9231    4.3237 C.ar      12 UNK        -0.0824 
     13 C13        31.2510   23.0254    3.5693 C.ar      12 UNK        -0.0762 
     14 C14        31.3767   23.0122    2.1784 C.ar      12 UNK        -0.0782 
     15 C15        30.2776   22.0654    4.2372 C.3       12 UNK         0.0230 
     16 S16        28.5478   22.5514    3.9279 S.3       12 UNK        -0.2608 
     17 C17        28.4039   24.0226    4.9920 C.3       12 UNK        -0.0989 
     18 CA         28.5969   25.3474    4.2147 C.3       5 UNK         0.0716 
     19 N          27.5427   25.5702    3.2195 N.am      5 UNK        -0.4135 
     20 C          27.4578   26.6340    2.4093 C.2       4 UNK         0.5031 
     21 O          28.2977   27.5377    2.3546 O.2       4 UNK        -0.5229 
     22 CA         26.1969   26.7255    1.5459 C.3       4 UNK         0.0329 
     23 CB         25.0135   27.2750    2.3652 C.3       4 UNK        -0.2001 
     24 N          26.4683   27.6070    0.4125 N.am      4 UNK        -0.4303 
     25 C          25.8831   27.6391   -0.7924 C.2       3 UNK         0.5044 
     26 O          26.2353   28.4548   -1.6436 O.2       3 UNK        -0.5152 
     27 CA         24.7503   26.6434   -1.1307 C.3       3 UNK         0.0319 
     28 CB         23.4890   27.3500   -1.6727 C.3       3 UNK        -0.2001 
     29 N          25.2444   25.5869   -2.0221 N.am      3 UNK        -0.4354 
     30 C          25.5107   25.6460   -3.3393 C.2       2 UNK         0.4964 
     31 O          25.2470   26.6052   -4.0662 O.2       2 UNK        -0.5047 
     32 CA         26.1900   24.3972   -3.9467 C.3       2 UNK         0.0288 
     33 CB         26.7587   24.6371   -5.3626 C.3       2 UNK        -0.2113 
     34 N          27.2133   23.8286   -3.0592 N.am      2 UNK        -0.4145 
     35 C          28.2988   24.4525   -2.5708 C.2       1 UNK         0.5006 
     36 O          28.6739   25.5609   -2.9567 O.2       1 UNK        -0.5103 
     37 C          28.6803   26.5185    5.2109 C.2       5 UNK         0.5055 
     38 O          27.6438   27.0429    5.6251 O.2       5 UNK        -0.5220 
     39 N          29.9126   26.9115    5.5545 N.am      6 UNK        -0.4450 
     40 CA         30.3058   28.0404    6.4089 C.3       6 UNK         0.0367 
     41 CB         29.6879   27.9503    7.8178 C.3       6 UNK        -0.1929 
     42 C          30.0717   29.4283    5.7816 C.2       6 UNK         0.5070 
     43 O          30.8542   30.3390    6.0533 O.2       6 UNK        -0.5237 
     44 N          29.0254   29.5755    4.9600 N.am      7 UNK        -0.4739 
     45 CA         28.6998   30.7980    4.2275 C.3       7 UNK         0.0276 
     46 CB         27.2305   30.7509    3.7792 C.3       7 UNK        -0.1927 
     47 C          29.6265   31.0213    3.0232 C.2       7 UNK         0.5013 
     48 O          30.0529   32.1560    2.8019 O.2       7 UNK        -0.5193 
     49 N          29.9203   29.9463    2.2742 N.am      8 UNK        -0.4253 
     50 CA         30.7704   29.9289    1.0787 C.3       8 UNK         0.0242 
     51 CB         30.8796   28.4876    0.5567 C.3       8 UNK        -0.2000 
     52 C          32.1639   30.5218    1.3428 C.2       8 UNK         0.4948 
     53 O          32.9654   29.9038    2.0425 O.2       8 UNK        -0.5275 
     54 N          32.3945   31.7419    0.8344 N.am      9 UNK        -0.4246 
     55 CA         33.5877   32.5751    1.0481 C.3       9 UNK         0.0261 
     56 CB         34.8083   31.9617    0.3287 C.3       9 UNK        -0.1959 
     57 C          33.8788   32.8878    2.5343 C.2       9 UNK         0.5033 
     58 O          35.0251   33.1886    2.8736 O.2       9 UNK        -0.5390 
     59 N          32.8442   32.8076    3.3878 N.am      10 UNK        -0.4215 
     60 CA         32.8784   32.9361    4.8478 C.3       10 UNK         0.0240 
     61 CB         33.1476   34.4005    5.2562 C.3       10 UNK        -0.1982 
     62 C          33.8334   31.9307    5.5282 C.2       10 UNK         0.4970 
     63 O          34.5500   32.3095    6.4575 O.2       10 UNK        -0.4916 
     64 N          33.8404   30.6739    5.0563 N.am      11 UNK        -0.4279 
     65 CA         34.6701   29.5864    5.6031 C.3       11 UNK         0.1003 
     66 C          34.3425   29.1389    7.0595 C.2       11 UNK         0.5709 
     67 N          33.2161   29.5299    7.6427 N.am      11 UNK        -0.7358 
     68 O          35.1406   28.4389    7.6784 O.2       11 UNK        -0.4999 
     69 C69        34.7857   28.3893    4.6224 C.3       12 UNK        -0.0954 
     70 S70        33.2253   27.4878    4.3101 S.3       12 UNK        -0.2268 
     71 C71        33.7688   25.7606    4.4924 C.3       12 UNK         0.0203 
     72 H72        26.6200   21.5286    1.5931 H         1 UNK         0.0888 
     73 H73        25.7949   21.0585    0.1047 H         1 UNK         0.0888 
     74 H74        27.4611   20.5480    0.3924 H         1 UNK         0.0888 
     75 H75        28.8642   21.7093   -0.8923 H         1 UNK         0.3017 
     76 H76        29.9294   23.2617   -1.9674 H         1 UNK         0.0873 
     77 H77        29.0322   25.6138   -0.3020 H         1 UNK         0.0745 
     78 H78        29.6237   24.2841    0.6104 H         1 UNK         0.0745 
     79 H79        32.0264   22.9379   -0.3915 H         1 UNK         0.0705 
     80 H80        33.3879   24.0213   -0.2732 H         1 UNK         0.0705 
     81 H81        33.6652   25.4867    1.7977 H         1 UNK         0.1334 
     82 H82        31.9342   23.9270    5.4021 H         1 UNK         0.1417 
     83 H83        30.7842   22.3186    1.5971 H         1 UNK         0.1562 
     84 H84        30.4608   21.9996    5.3108 H         1 UNK         0.0748 
     85 H85        30.4362   21.0613    3.8410 H         1 UNK         0.0748 
     86 H86        29.1293   23.9368    5.8038 H         1 UNK         0.0940 
     87 H87        27.4231   24.0021    5.4718 H         1 UNK         0.0940 
     88 H88        29.5384   25.3037    3.6636 H         1 UNK         0.0703 
     89 H89        26.8053   24.8819    3.2010 H         1 UNK         0.3081 
     90 H90        25.9731   25.7191    1.2000 H         1 UNK         0.0719 
     91 H91        25.2245   28.2716    2.7544 H         1 UNK         0.0809 
     92 H92        24.1009   27.3391    1.7736 H         1 UNK         0.0809 
     93 H93        24.7965   26.6338    3.2206 H         1 UNK         0.0809 
     94 H94        27.2484   28.2277    0.5873 H         1 UNK         0.2990 
     95 H95        24.4200   26.1227   -0.2355 H         1 UNK         0.0690 
     96 H96        23.0566   27.9971   -0.9089 H         1 UNK         0.0788 
     97 H97        22.7227   26.6308   -1.9617 H         1 UNK         0.0788 
     98 H98        23.7030   27.9795   -2.5366 H         1 UNK         0.0788 
     99 H99        25.5674   24.7610   -1.5266 H         1 UNK         0.2993 
    100 H100       25.4053   23.6439   -4.0335 H         1 UNK         0.0949 
    101 H101       27.2198   23.7343   -5.7630 H         1 UNK         0.0767 
    102 H102       25.9695   24.9312   -6.0556 H         1 UNK         0.0767 
    103 H103       27.5084   25.4289   -5.3707 H         1 UNK         0.0767 
    104 H104       27.0013   22.9177   -2.6769 H         1 UNK         0.3013 
    105 H105       30.6907   26.4427    5.1098 H         1 UNK         0.3121 
    106 H106       31.3824   27.9332    6.5300 H         1 UNK         0.0774 
    107 H107       30.1097   28.7143    8.4720 H         1 UNK         0.0815 
    108 H108       28.6085   28.1020    7.8045 H         1 UNK         0.0815 
    109 H109       29.8877   26.9831    8.2785 H         1 UNK         0.0815 
    110 H110       28.4138   28.7773    4.8292 H         1 UNK         0.2987 
    111 H111       28.8231   31.6471    4.9038 H         1 UNK         0.0949 
    112 H112       27.0419   29.9211    3.0976 H         1 UNK         0.0806 
    113 H113       26.5587   30.6441    4.6311 H         1 UNK         0.0806 
    114 H114       26.9523   31.6689    3.2598 H         1 UNK         0.0806 
    115 H115       29.4866   29.0603    2.5203 H         1 UNK         0.3010 
    116 H116       30.2731   30.5266    0.3125 H         1 UNK         0.0829 
    117 H117       29.9109   28.1030    0.2382 H         1 UNK         0.0813 
    118 H118       31.5465   28.4305   -0.3045 H         1 UNK         0.0813 
    119 H119       31.2730   27.8113    1.3178 H         1 UNK         0.0813 
    120 H120       31.6490   32.1837    0.3131 H         1 UNK         0.3038 
    121 H121       33.3754   33.5362    0.5777 H         1 UNK         0.0769 
    122 H122       35.1216   31.0262    0.7934 H         1 UNK         0.0811 
    123 H123       35.6625   32.6394    0.3555 H         1 UNK         0.0811 
    124 H124       34.5914   31.7594   -0.7200 H         1 UNK         0.0811 
    125 H125       31.9337   32.5617    3.0046 H         1 UNK         0.3204 
    126 H126       31.8763   32.6806    5.1947 H         1 UNK         0.0748 
    127 H127       33.0504   34.5304    6.3347 H         1 UNK         0.0771 
    128 H128       34.1527   34.7199    4.9788 H         1 UNK         0.0771 
    129 H129       32.4375   35.0800    4.7848 H         1 UNK         0.0771 
    130 H130       33.2467   30.4263    4.2744 H         1 UNK         0.2980 
    131 H131       35.6763   30.0042    5.6724 H         1 UNK         0.0545 
    132 H132       33.0301   29.2522    8.5923 H         1 UNK         0.3459 
    133 H133       32.5284   30.0610    7.1200 H         1 UNK         0.3459 
    134 H134       35.1554   28.7440    3.6590 H         1 UNK         0.0616 
    135 H135       35.5445   27.6941    4.9850 H         1 UNK         0.0616 
    136 H136       33.7718   25.4963    5.5509 H         1 UNK         0.0634 
    137 H137       34.7975   25.6584    4.1438 H         1 UNK         0.0634 
@<TRIPOS>BOND
     1    1    2 1    
     2    1   72 1    
     3    1   73 1    
     4    1   74 1    
     5    2    3 2    
     6    2    4 am   BACKBONE|DICT|INTERRES
     7    4    5 1    
     8    4   75 1    
     9    5    6 1    
    10    5   35 1    
    11    5   76 1    
    12    6    7 1    
    13    6   77 1    
    14    6   78 1    
    15    7    8 1    
    16    8    9 1    
    17    8   79 1    
    18    8   80 1    
    19    9   10 ar   
    20    9   14 ar   
    21   10   11 ar   
    22   10   81 1    
    23   11   12 ar   
    24   11   71 1    
    25   12   13 ar   
    26   12   82 1    
    27   13   14 ar   
    28   13   15 1    
    29   14   83 1    
    30   15   16 1    
    31   15   84 1    
    32   15   85 1    
    33   16   17 1    
    34   17   18 1    
    35   17   86 1    
    36   17   87 1    
    37   18   19 1    
    38   18   37 1    
    39   18   88 1    
    40   19   20 am   BACKBONE|DICT|INTERRES
    41   19   89 1    
    42   20   21 2    
    43   20   22 1    
    44   22   23 1    
    45   22   24 1    
    46   22   90 1    
    47   23   91 1    
    48   23   92 1    
    49   23   93 1    
    50   24   25 am   BACKBONE|DICT|INTERRES
    51   24   94 1    
    52   25   26 2    
    53   25   27 1    
    54   27   28 1    
    55   27   29 1    
    56   27   95 1    
    57   28   96 1    
    58   28   97 1    
    59   28   98 1    
    60   29   30 am   BACKBONE|DICT|INTERRES
    61   29   99 1    
    62   30   31 2    
    63   30   32 1    
    64   32   33 1    
    65   32   34 1    
    66   32  100 1    
    67   33  101 1    
    68   33  102 1    
    69   33  103 1    
    70   34   35 am   BACKBONE|DICT|INTERRES
    71   34  104 1    
    72   35   36 2    
    73   37   38 2    
    74   37   39 am   BACKBONE|DICT|INTERRES
    75   39   40 1    
    76   39  105 1    
    77   40   41 1    
    78   40   42 1    
    79   40  106 1    
    80   41  107 1    
    81   41  108 1    
    82   41  109 1    
    83   42   43 2    
    84   42   44 am   BACKBONE|DICT|INTERRES
    85   44   45 1    
    86   44  110 1    
    87   45   46 1    
    88   45   47 1    
    89   45  111 1    
    90   46  112 1    
    91   46  113 1    
    92   46  114 1    
    93   47   48 2    
    94   47   49 am   BACKBONE|DICT|INTERRES
    95   49   50 1    
    96   49  115 1    
    97   50   51 1    
    98   50   52 1    
    99   50  116 1    
   100   51  117 1    
   101   51  118 1    
   102   51  119 1    
   103   52   53 2    
   104   52   54 am   BACKBONE|DICT|INTERRES
   105   54   55 1    
   106   54  120 1    
   107   55   56 1    
   108   55   57 1    
   109   55  121 1    
   110   56  122 1    
   111   56  123 1    
   112   56  124 1    
   113   57   58 2    
   114   57   59 am   BACKBONE|DICT|INTERRES
   115   59   60 1    
   116   59  125 1    
   117   60   61 1    
   118   60   62 1    
   119   60  126 1    
   120   61  127 1    
   121   61  128 1    
   122   61  129 1    
   123   62   63 2    
   124   62   64 am   BACKBONE|DICT|INTERRES
   125   64   65 1    
   126   64  130 1    
   127   65   66 1    
   128   65   69 1    
   129   65  131 1    
   130   66   67 am   BACKBONE|DICT|INTERRES
   131   66   68 2    
   132   67  132 1    
   133   67  133 1    
   134   69   70 1    
   135   69  134 1    
   136   69  135 1    
   137   70   71 1    
   138   71  136 1    
   139   71  137 1    
@<TRIPOS>SUBSTRUCTURE
     1 UNK         1 GROUP             0       ****    0 ROOT    
