@<TRIPOS>MOLECULE
3R136
137   139    1
SMALL
USER_CHARGES


@<TRIPOS>ATOM
      1 CA         24.7091   19.9337    2.9375 C.3       0 UNK        -0.1979 
      2 C          25.8107   19.7873    1.8979 C.2       0 UNK         0.4864 
      3 O          25.7492   18.8815    1.0644 O.2       0 UNK        -0.5359 
      4 N          26.8203   20.6650    1.9471 N.am      1 UNK        -0.4318 
      5 CA         27.9211   20.7327    0.9819 C.3       1 UNK         0.0824 
      6 C6         29.1487   21.4683    1.5810 C.3       12 UNK        -0.0944 
      7 S7         28.8363   23.2170    2.0019 S.3       12 UNK        -0.2672 
      8 C8         30.2914   23.5807    3.0267 C.3       12 UNK         0.0333 
      9 C9         30.3326   25.0541    3.3970 C.ar      12 UNK        -0.0807 
     10 C10        31.2930   25.9023    2.8395 C.ar      12 UNK        -0.0894 
     11 C11        31.3252   27.2576    3.1806 C.ar      12 UNK        -0.0804 
     12 C12        30.3781   27.7671    4.0754 C.ar      12 UNK        -0.0824 
     13 C13        29.4033   26.9301    4.6286 C.ar      12 UNK        -0.0762 
     14 C14        29.4003   25.5714    4.2990 C.ar      12 UNK        -0.0782 
     15 C15        28.3546   27.4800    5.5871 C.3       12 UNK         0.0230 
     16 S16        26.6564   27.1488    5.0040 S.3       12 UNK        -0.2608 
     17 C17        26.3387   28.5606    3.8927 C.3       12 UNK        -0.0989 
     18 CA         27.0192   28.4569    2.4988 C.3       5 UNK         0.0716 
     19 N          26.7731   27.1935    1.7933 N.am      5 UNK        -0.4135 
     20 C          25.6158   26.7853    1.2559 C.2       4 UNK         0.5031 
     21 O          24.5494   27.3873    1.3961 O.2       4 UNK        -0.5229 
     22 CA         25.6602   25.5041    0.3912 C.3       4 UNK         0.0329 
     23 CB         24.5764   25.5106   -0.7065 C.3       4 UNK        -0.2001 
     24 N          26.9645   25.1903   -0.2155 N.am      4 UNK        -0.4303 
     25 C          27.7409   25.9865   -0.9704 C.2       3 UNK         0.5044 
     26 O          27.5120   27.1786   -1.1710 O.2       3 UNK        -0.5152 
     27 CA         29.0042   25.3640   -1.5915 C.3       3 UNK         0.0319 
     28 CB         30.2370   25.6780   -0.7288 C.3       3 UNK        -0.2001 
     29 N          28.8990   23.9154   -1.7883 N.am      3 UNK        -0.4354 
     30 C          28.1461   23.3314   -2.7339 C.2       2 UNK         0.4964 
     31 O          27.5171   23.9558   -3.5887 O.2       2 UNK        -0.5047 
     32 CA         28.0685   21.7916   -2.7247 C.3       2 UNK         0.0288 
     33 CB         29.0822   21.1966   -3.7159 C.3       2 UNK        -0.2113 
     34 N          28.2758   21.1902   -1.4018 N.am      2 UNK        -0.4145 
     35 C          27.4651   21.3706   -0.3490 C.2       1 UNK         0.5006 
     36 O          26.4406   22.0583   -0.3906 O.2       1 UNK        -0.5103 
     37 C          26.7493   29.7037    1.6192 C.2       5 UNK         0.5055 
     38 O          26.3368   30.7413    2.1432 O.2       5 UNK        -0.5220 
     39 N          27.0013   29.6058    0.3020 N.am      6 UNK        -0.4450 
     40 CA         26.9849   30.7484   -0.6211 C.3       6 UNK         0.0367 
     41 CB         27.0012   30.2443   -2.0726 C.3       6 UNK        -0.1929 
     42 C          28.1583   31.7142   -0.3694 C.2       6 UNK         0.5070 
     43 O          28.0135   32.9183   -0.5825 O.2       6 UNK        -0.5237 
     44 N          29.2808   31.1662    0.1100 N.am      7 UNK        -0.4739 
     45 CA         30.3943   31.8975    0.7076 C.3       7 UNK         0.0276 
     46 CB         31.7146   31.3087    0.1821 C.3       7 UNK        -0.1927 
     47 C          30.3101   31.7505    2.2345 C.2       7 UNK         0.5013 
     48 O          29.7210   30.7834    2.7248 O.2       7 UNK        -0.5193 
     49 N          30.9159   32.6971    2.9608 N.am      8 UNK        -0.4253 
     50 CA         31.0135   32.6748    4.4227 C.3       8 UNK         0.0242 
     51 CB         31.5461   34.0331    4.9090 C.3       8 UNK        -0.2000 
     52 C          31.9254   31.5397    4.9166 C.2       8 UNK         0.4948 
     53 O          32.8679   31.1672    4.2165 O.2       8 UNK        -0.5275 
     54 N          31.6754   31.0621    6.1447 N.am      9 UNK        -0.4246 
     55 CA         32.3931   29.9616    6.8106 C.3       9 UNK         0.0261 
     56 CB         31.7012   29.6521    8.1484 C.3       9 UNK        -0.1959 
     57 C          33.9096   30.1734    7.0153 C.2       9 UNK         0.5033 
     58 O          34.6133   29.2174    7.3444 O.2       9 UNK        -0.5390 
     59 N          34.3982   31.3976    6.7725 N.am      10 UNK        -0.4215 
     60 CA         35.8140   31.7528    6.6443 C.3       10 UNK         0.0240 
     61 CB         35.9328   33.2853    6.5835 C.3       10 UNK        -0.1982 
     62 C          36.5208   31.1041    5.4322 C.2       10 UNK         0.4970 
     63 O          37.7469   31.1893    5.3522 O.2       10 UNK        -0.4916 
     64 N          35.7600   30.4721    4.5248 N.am      11 UNK        -0.4279 
     65 CA         36.2360   29.6675    3.3878 C.3       11 UNK         0.1003 
     66 C          37.2394   28.5229    3.7301 C.2       11 UNK         0.5709 
     67 N          37.2629   28.0043    4.9531 N.am      11 UNK        -0.7358 
     68 O          38.0113   28.1066    2.8691 O.2       11 UNK        -0.4999 
     69 C69        35.0423   29.1321    2.5482 C.3       12 UNK        -0.0954 
     70 S70        33.9589   27.9862    3.4760 S.3       12 UNK        -0.2268 
     71 C71        32.3884   28.1645    2.5821 C.3       12 UNK         0.0203 
     72 H72        24.8986   20.7639    3.6178 H         1 UNK         0.0888 
     73 H73        23.7522   20.1096    2.4468 H         1 UNK         0.0888 
     74 H74        24.6273   19.0224    3.5292 H         1 UNK         0.0888 
     75 H75        26.8034   21.4101    2.6287 H         1 UNK         0.3017 
     76 H76        28.2271   19.7083    0.7577 H         1 UNK         0.0873 
     77 H77        29.9977   21.4235    0.8965 H         1 UNK         0.0745 
     78 H78        29.4744   20.9478    2.4834 H         1 UNK         0.0745 
     79 H79        30.2610   22.9745    3.9333 H         1 UNK         0.0705 
     80 H80        31.1950   23.2932    2.4866 H         1 UNK         0.0705 
     81 H81        32.0231   25.5094    2.1450 H         1 UNK         0.1334 
     82 H82        30.3976   28.8172    4.3331 H         1 UNK         0.1417 
     83 H83        28.6520   24.9175    4.7265 H         1 UNK         0.1562 
     84 H84        28.4885   28.5506    5.7501 H         1 UNK         0.0748 
     85 H85        28.4895   27.0028    6.5586 H         1 UNK         0.0748 
     86 H86        26.6568   29.4704    4.4056 H         1 UNK         0.0940 
     87 H87        25.2575   28.6497    3.7730 H         1 UNK         0.0940 
     88 H88        28.0950   28.4804    2.6662 H         1 UNK         0.0703 
     89 H89        27.5864   26.6148    1.6424 H         1 UNK         0.3081 
     90 H90        25.4400   24.6783    1.0695 H         1 UNK         0.0719 
     91 H91        24.5940   24.5854   -1.2832 H         1 UNK         0.0809 
     92 H92        24.7142   26.3411   -1.4000 H         1 UNK         0.0809 
     93 H93        23.5777   25.6027   -0.2781 H         1 UNK         0.0809 
     94 H94        27.2548   24.2266   -0.1081 H         1 UNK         0.2990 
     95 H95        29.1488   25.8315   -2.5680 H         1 UNK         0.0690 
     96 H96        31.1527   25.3192   -1.1988 H         1 UNK         0.0788 
     97 H97        30.1656   25.2222    0.2578 H         1 UNK         0.0788 
     98 H98        30.3495   26.7533   -0.5821 H         1 UNK         0.0788 
     99 H99        29.3947   23.3281   -1.1339 H         1 UNK         0.2993 
    100 H100       27.0641   21.5199   -3.0573 H         1 UNK         0.0949 
    101 H101       28.9346   21.6046   -4.7171 H         1 UNK         0.0767 
    102 H102       30.1101   21.4152   -3.4235 H         1 UNK         0.0767 
    103 H103       28.9759   20.1142   -3.7915 H         1 UNK         0.0767 
    104 H104       29.0997   20.6158   -1.2928 H         1 UNK         0.3013 
    105 H105       27.2638   28.7060   -0.0964 H         1 UNK         0.3121 
    106 H106       26.0569   31.3021   -0.4629 H         1 UNK         0.0774 
    107 H107       26.9403   31.0767   -2.7749 H         1 UNK         0.0815 
    108 H108       27.9149   29.6928   -2.2983 H         1 UNK         0.0815 
    109 H109       26.1556   29.5862   -2.2736 H         1 UNK         0.0815 
    110 H110       29.2593   30.1774    0.3139 H         1 UNK         0.2987 
    111 H111       30.3438   32.9577    0.4492 H         1 UNK         0.0949 
    112 H112       32.5751   31.8017    0.6366 H         1 UNK         0.0806 
    113 H113       31.7981   30.2435    0.3985 H         1 UNK         0.0806 
    114 H114       31.8005   31.4364   -0.8971 H         1 UNK         0.0806 
    115 H115       31.4166   33.4336    2.4858 H         1 UNK         0.3010 
    116 H116       30.0108   32.5203    4.8277 H         1 UNK         0.0829 
    117 H117       30.8997   34.8505    4.5887 H         1 UNK         0.0813 
    118 H118       31.5939   34.0712    5.9982 H         1 UNK         0.0813 
    119 H119       32.5503   34.2320    4.5315 H         1 UNK         0.0813 
    120 H120       30.9022   31.4576    6.6609 H         1 UNK         0.3038 
    121 H121       32.2939   29.0837    6.1684 H         1 UNK         0.0769 
    122 H122       32.1831   28.8142    8.6544 H         1 UNK         0.0811 
    123 H123       30.6562   29.3779    8.0017 H         1 UNK         0.0811 
    124 H124       31.7355   30.5054    8.8268 H         1 UNK         0.0811 
    125 H125       33.7356   32.1072    6.4979 H         1 UNK         0.3204 
    126 H126       36.3285   31.4016    7.5411 H         1 UNK         0.0748 
    127 H127       36.9774   33.5959    6.5314 H         1 UNK         0.0771 
    128 H128       35.4273   33.6943    5.7075 H         1 UNK         0.0771 
    129 H129       35.5033   33.7531    7.4697 H         1 UNK         0.0771 
    130 H130       34.7509   30.5111    4.6244 H         1 UNK         0.2980 
    131 H131       36.7890   30.3603    2.7514 H         1 UNK         0.0545 
    132 H132       36.6129   28.3282    5.6533 H         1 UNK         0.3459 
    133 H133       37.9158   27.2677    5.1675 H         1 UNK         0.3459 
    134 H134       34.4420   29.9720    2.1946 H         1 UNK         0.0616 
    135 H135       35.3988   28.6232    1.6510 H         1 UNK         0.0616 
    136 H136       32.5380   27.9198    1.5295 H         1 UNK         0.0634 
    137 H137       32.0654   29.2046    2.6193 H         1 UNK         0.0634 
@<TRIPOS>BOND
     1    1    2 1    
     2    1   72 1    
     3    1   73 1    
     4    1   74 1    
     5    2    3 2    
     6    2    4 am   BACKBONE|DICT|INTERRES
     7    4    5 1    
     8    4   75 1    
     9    5    6 1    
    10    5   35 1    
    11    5   76 1    
    12    6    7 1    
    13    6   77 1    
    14    6   78 1    
    15    7    8 1    
    16    8    9 1    
    17    8   79 1    
    18    8   80 1    
    19    9   10 ar   
    20    9   14 ar   
    21   10   11 ar   
    22   10   81 1    
    23   11   12 ar   
    24   11   71 1    
    25   12   13 ar   
    26   12   82 1    
    27   13   14 ar   
    28   13   15 1    
    29   14   83 1    
    30   15   16 1    
    31   15   84 1    
    32   15   85 1    
    33   16   17 1    
    34   17   18 1    
    35   17   86 1    
    36   17   87 1    
    37   18   19 1    
    38   18   37 1    
    39   18   88 1    
    40   19   20 am   BACKBONE|DICT|INTERRES
    41   19   89 1    
    42   20   21 2    
    43   20   22 1    
    44   22   23 1    
    45   22   24 1    
    46   22   90 1    
    47   23   91 1    
    48   23   92 1    
    49   23   93 1    
    50   24   25 am   BACKBONE|DICT|INTERRES
    51   24   94 1    
    52   25   26 2    
    53   25   27 1    
    54   27   28 1    
    55   27   29 1    
    56   27   95 1    
    57   28   96 1    
    58   28   97 1    
    59   28   98 1    
    60   29   30 am   BACKBONE|DICT|INTERRES
    61   29   99 1    
    62   30   31 2    
    63   30   32 1    
    64   32   33 1    
    65   32   34 1    
    66   32  100 1    
    67   33  101 1    
    68   33  102 1    
    69   33  103 1    
    70   34   35 am   BACKBONE|DICT|INTERRES
    71   34  104 1    
    72   35   36 2    
    73   37   38 2    
    74   37   39 am   BACKBONE|DICT|INTERRES
    75   39   40 1    
    76   39  105 1    
    77   40   41 1    
    78   40   42 1    
    79   40  106 1    
    80   41  107 1    
    81   41  108 1    
    82   41  109 1    
    83   42   43 2    
    84   42   44 am   BACKBONE|DICT|INTERRES
    85   44   45 1    
    86   44  110 1    
    87   45   46 1    
    88   45   47 1    
    89   45  111 1    
    90   46  112 1    
    91   46  113 1    
    92   46  114 1    
    93   47   48 2    
    94   47   49 am   BACKBONE|DICT|INTERRES
    95   49   50 1    
    96   49  115 1    
    97   50   51 1    
    98   50   52 1    
    99   50  116 1    
   100   51  117 1    
   101   51  118 1    
   102   51  119 1    
   103   52   53 2    
   104   52   54 am   BACKBONE|DICT|INTERRES
   105   54   55 1    
   106   54  120 1    
   107   55   56 1    
   108   55   57 1    
   109   55  121 1    
   110   56  122 1    
   111   56  123 1    
   112   56  124 1    
   113   57   58 2    
   114   57   59 am   BACKBONE|DICT|INTERRES
   115   59   60 1    
   116   59  125 1    
   117   60   61 1    
   118   60   62 1    
   119   60  126 1    
   120   61  127 1    
   121   61  128 1    
   122   61  129 1    
   123   62   63 2    
   124   62   64 am   BACKBONE|DICT|INTERRES
   125   64   65 1    
   126   64  130 1    
   127   65   66 1    
   128   65   69 1    
   129   65  131 1    
   130   66   67 am   BACKBONE|DICT|INTERRES
   131   66   68 2    
   132   67  132 1    
   133   67  133 1    
   134   69   70 1    
   135   69  134 1    
   136   69  135 1    
   137   70   71 1    
   138   71  136 1    
   139   71  137 1    
@<TRIPOS>SUBSTRUCTURE
     1 UNK         1 GROUP             0       ****    0 ROOT    
