@<TRIPOS>MOLECULE
3R136
137   139    1
SMALL
USER_CHARGES


@<TRIPOS>ATOM
      1 CA         25.4009   18.4632    1.4766 C.3       0 UNK        -0.1979 
      2 C          25.9875   19.7185    0.8476 C.2       0 UNK         0.4864 
      3 O          25.8349   19.9248   -0.3569 O.2       0 UNK        -0.5359 
      4 N          26.6610   20.5520    1.6533 N.am      1 UNK        -0.4318 
      5 CA         27.2673   21.8223    1.2374 C.3       1 UNK         0.0824 
      6 C6         28.2136   22.3704    2.3372 C.3       12 UNK        -0.0944 
      7 S7         29.3201   23.6960    1.7466 S.3       12 UNK        -0.2672 
      8 C8         30.9516   22.9276    1.9892 C.3       12 UNK         0.0333 
      9 C9         32.0594   23.8693    1.5474 C.ar      12 UNK        -0.0807 
     10 C10        32.7080   24.6893    2.4751 C.ar      12 UNK        -0.0894 
     11 C11        33.7049   25.5792    2.0617 C.ar      12 UNK        -0.0804 
     12 C12        34.0401   25.6574    0.7054 C.ar      12 UNK        -0.0824 
     13 C13        33.3990   24.8377   -0.2298 C.ar      12 UNK        -0.0762 
     14 C14        32.4257   23.9313    0.2016 C.ar      12 UNK        -0.0782 
     15 C15        33.7435   24.9324   -1.7101 C.3       12 UNK         0.0230 
     16 S16        32.8855   26.3157   -2.5320 S.3       12 UNK        -0.2608 
     17 C17        31.1273   25.8801   -2.2771 C.3       12 UNK        -0.0989 
     18 CA         30.1225   27.0081   -2.6204 C.3       5 UNK         0.0716 
     19 N          28.7507   26.5823   -2.3403 N.am      5 UNK        -0.4135 
     20 C          27.6540   27.1212   -2.8871 C.2       4 UNK         0.5031 
     21 O          27.6705   27.9623   -3.7866 O.2       4 UNK        -0.5229 
     22 CA         26.3066   26.6443   -2.3230 C.3       4 UNK         0.0329 
     23 CB         25.8547   25.3465   -3.0116 C.3       4 UNK        -0.2001 
     24 N          26.3317   26.4453   -0.8704 N.am      4 UNK        -0.4303 
     25 C          26.3892   27.4397    0.0319 C.2       3 UNK         0.5044 
     26 O          26.5030   28.6261   -0.2799 O.2       3 UNK        -0.5152 
     27 CA         26.2977   27.0548    1.5271 C.3       3 UNK         0.0319 
     28 CB         25.6792   28.1719    2.3939 C.3       3 UNK        -0.2001 
     29 N          25.6290   25.7706    1.7682 N.am      3 UNK        -0.4354 
     30 C          24.3803   25.4156    1.4235 C.2       2 UNK         0.4964 
     31 O          23.5425   26.2047    0.9845 O.2       2 UNK        -0.5047 
     32 CA         24.0140   23.9187    1.5563 C.3       2 UNK         0.0288 
     33 CB         23.1008   23.4495    0.4034 C.3       2 UNK        -0.2113 
     34 N          25.1636   23.0055    1.6849 N.am      2 UNK        -0.4145 
     35 C          26.1992   22.8631    0.8382 C.2       1 UNK         0.5006 
     36 O          26.3441   23.5261   -0.1913 O.2       1 UNK        -0.5103 
     37 C          30.4055   28.3234   -1.8665 C.2       5 UNK         0.5055 
     38 O          30.6865   29.3456   -2.4953 O.2       5 UNK        -0.5220 
     39 N          30.3023   28.2693   -0.5347 N.am      6 UNK        -0.4450 
     40 CA         30.5206   29.3740    0.3873 C.3       6 UNK         0.0367 
     41 CB         32.0317   29.6066    0.5767 C.3       6 UNK        -0.1929 
     42 C          29.8495   29.0133    1.7151 C.2       6 UNK         0.5070 
     43 O          29.7341   27.8277    2.0345 O.2       6 UNK        -0.5237 
     44 N          29.4266   30.0369    2.4632 N.am      7 UNK        -0.4739 
     45 CA         28.9165   29.9014    3.8282 C.3       7 UNK         0.0276 
     46 CB         28.0141   31.1070    4.1399 C.3       7 UNK        -0.1927 
     47 C          30.0806   29.8386    4.8278 C.2       7 UNK         0.5013 
     48 O          31.1662   30.3413    4.5293 O.2       7 UNK        -0.5193 
     49 N          29.8213   29.2966    6.0262 N.am      8 UNK        -0.4253 
     50 CA         30.7995   29.1454    7.1141 C.3       8 UNK         0.0242 
     51 CB         30.1180   28.4995    8.3308 C.3       8 UNK        -0.2000 
     52 C          31.5080   30.4508    7.5258 C.2       8 UNK         0.4948 
     53 O          32.6945   30.4187    7.8527 O.2       8 UNK        -0.5275 
     54 N          30.7846   31.5771    7.4530 N.am      9 UNK        -0.4246 
     55 CA         31.3068   32.9253    7.6892 C.3       9 UNK         0.0261 
     56 CB         30.1298   33.9084    7.7985 C.3       9 UNK        -0.1959 
     57 C          32.3074   33.4039    6.6187 C.2       9 UNK         0.5033 
     58 O          33.1514   34.2451    6.9311 O.2       9 UNK        -0.5390 
     59 N          32.2019   32.8774    5.3901 N.am      10 UNK        -0.4215 
     60 CA         33.1325   33.1435    4.2924 C.3       10 UNK         0.0240 
     61 CB         32.3802   33.1111    2.9518 C.3       10 UNK        -0.1982 
     62 C          34.2995   32.1438    4.3010 C.2       10 UNK         0.4970 
     63 O          35.4295   32.5476    4.0231 O.2       10 UNK        -0.4916 
     64 N          34.0186   30.8753    4.6351 N.am      11 UNK        -0.4279 
     65 CA         35.0269   29.8250    4.8513 C.3       11 UNK         0.1003 
     66 C          35.9988   30.1423    6.0222 C.2       11 UNK         0.5709 
     67 N          35.5057   30.6082    7.1635 N.am      11 UNK        -0.7358 
     68 O          37.2075   29.9641    5.8914 O.2       11 UNK        -0.4999 
     69 C69        34.3854   28.4302    5.0616 C.3       12 UNK        -0.0954 
     70 S70        33.4203   27.8477    3.6285 S.3       12 UNK        -0.2268 
     71 C71        34.4294   26.4332    3.0910 C.3       12 UNK         0.0203 
     72 H72        25.6169   18.4010    2.5430 H         1 UNK         0.0888 
     73 H73        25.8114   17.5757    0.9957 H         1 UNK         0.0888 
     74 H74        24.3188   18.4505    1.3488 H         1 UNK         0.0888 
     75 H75        26.7625   20.3127    2.6297 H         1 UNK         0.3017 
     76 H76        27.8655   21.6143    0.3472 H         1 UNK         0.0873 
     77 H77        28.8288   21.5573    2.7261 H         1 UNK         0.0745 
     78 H78        27.6507   22.7438    3.1949 H         1 UNK         0.0745 
     79 H79        31.0766   22.6625    3.0403 H         1 UNK         0.0705 
     80 H80        31.0048   21.9961    1.4233 H         1 UNK         0.0705 
     81 H81        32.4329   24.6424    3.5200 H         1 UNK         0.1334 
     82 H82        34.7977   26.3554    0.3759 H         1 UNK         0.1417 
     83 H83        31.9233   23.2978   -0.5171 H         1 UNK         0.1562 
     84 H84        33.4955   24.0016   -2.2228 H         1 UNK         0.0748 
     85 H85        34.8200   25.0653   -1.8273 H         1 UNK         0.0748 
     86 H86        30.9809   25.5836   -1.2397 H         1 UNK         0.0940 
     87 H87        30.9088   24.9956   -2.8777 H         1 UNK         0.0940 
     88 H88        30.2093   27.2146   -3.6896 H         1 UNK         0.0703 
     89 H89        28.6243   25.8929   -1.6143 H         1 UNK         0.3081 
     90 H90        25.5659   27.4165   -2.5418 H         1 UNK         0.0719 
     91 H91        26.5465   24.5246   -2.8225 H         1 UNK         0.0809 
     92 H92        24.8684   25.0374   -2.6646 H         1 UNK         0.0809 
     93 H93        25.7917   25.4792   -4.0925 H         1 UNK         0.0809 
     94 H94        26.2528   25.4865   -0.5419 H         1 UNK         0.2990 
     95 H95        27.3253   26.9130    1.8598 H         1 UNK         0.0690 
     96 H96        25.6614   27.8932    3.4474 H         1 UNK         0.0788 
     97 H97        24.6584   28.4032    2.0888 H         1 UNK         0.0788 
     98 H98        26.2572   29.0930    2.3139 H         1 UNK         0.0788 
     99 H99        26.2296   25.0389    2.1204 H         1 UNK         0.2993 
    100 H100       23.4480   23.8330    2.4852 H         1 UNK         0.0949 
    101 H101       22.1716   24.0202    0.3769 H         1 UNK         0.0767 
    102 H102       23.5841   23.5689   -0.5672 H         1 UNK         0.0767 
    103 H103       22.8295   22.3996    0.5146 H         1 UNK         0.0767 
    104 H104       25.1539   22.4174    2.5069 H         1 UNK         0.3013 
    105 H105       30.0432   27.4075   -0.0705 H         1 UNK         0.3121 
    106 H106       30.0509   30.2757   -0.0117 H         1 UNK         0.0774 
    107 H107       32.4966   29.9723   -0.3387 H         1 UNK         0.0815 
    108 H108       32.5415   28.6860    0.8635 H         1 UNK         0.0815 
    109 H109       32.2276   30.3407    1.3576 H         1 UNK         0.0815 
    110 H110       29.5995   30.9783    2.1425 H         1 UNK         0.2987 
    111 H111       28.3307   28.9829    3.9087 H         1 UNK         0.0949 
    112 H112       28.5677   32.0467    4.1084 H         1 UNK         0.0806 
    113 H113       27.1914   31.1812    3.4286 H         1 UNK         0.0806 
    114 H114       27.5716   31.0223    5.1332 H         1 UNK         0.0806 
    115 H115       28.8976   28.9268    6.2001 H         1 UNK         0.3010 
    116 H116       31.5681   28.4592    6.7557 H         1 UNK         0.0829 
    117 H117       29.7111   27.5184    8.0848 H         1 UNK         0.0813 
    118 H118       30.8293   28.3564    9.1458 H         1 UNK         0.0813 
    119 H119       29.3037   29.1159    8.7139 H         1 UNK         0.0813 
    120 H120       29.8152   31.5042    7.1807 H         1 UNK         0.3038 
    121 H121       31.8343   32.9159    8.6455 H         1 UNK         0.0769 
    122 H122       29.5489   33.9486    6.8761 H         1 UNK         0.0811 
    123 H123       30.4843   34.9196    8.0040 H         1 UNK         0.0811 
    124 H124       29.4557   33.6334    8.6100 H         1 UNK         0.0811 
    125 H125       31.5322   32.1317    5.2303 H         1 UNK         0.3204 
    126 H126       33.5546   34.1442    4.4086 H         1 UNK         0.0748 
    127 H127       31.6138   33.8852    2.9124 H         1 UNK         0.0771 
    128 H128       33.0608   33.2853    2.1172 H         1 UNK         0.0771 
    129 H129       31.8927   32.1526    2.7815 H         1 UNK         0.0771 
    130 H130       33.0494   30.6033    4.7679 H         1 UNK         0.2980 
    131 H131       35.6318   29.7752    3.9439 H         1 UNK         0.0545 
    132 H132       36.1337   30.8182    7.9221 H         1 UNK         0.3459 
    133 H133       34.5015   30.6760    7.3062 H         1 UNK         0.3459 
    134 H134       35.1558   27.6918    5.2910 H         1 UNK         0.0616 
    135 H135       33.7259   28.4466    5.9294 H         1 UNK         0.0616 
    136 H136       34.6750   25.8120    3.9538 H         1 UNK         0.0634 
    137 H137       35.3766   26.8003    2.6929 H         1 UNK         0.0634 
@<TRIPOS>BOND
     1    1    2 1    
     2    1   72 1    
     3    1   73 1    
     4    1   74 1    
     5    2    3 2    
     6    2    4 am   BACKBONE|DICT|INTERRES
     7    4    5 1    
     8    4   75 1    
     9    5    6 1    
    10    5   35 1    
    11    5   76 1    
    12    6    7 1    
    13    6   77 1    
    14    6   78 1    
    15    7    8 1    
    16    8    9 1    
    17    8   79 1    
    18    8   80 1    
    19    9   10 ar   
    20    9   14 ar   
    21   10   11 ar   
    22   10   81 1    
    23   11   12 ar   
    24   11   71 1    
    25   12   13 ar   
    26   12   82 1    
    27   13   14 ar   
    28   13   15 1    
    29   14   83 1    
    30   15   16 1    
    31   15   84 1    
    32   15   85 1    
    33   16   17 1    
    34   17   18 1    
    35   17   86 1    
    36   17   87 1    
    37   18   19 1    
    38   18   37 1    
    39   18   88 1    
    40   19   20 am   BACKBONE|DICT|INTERRES
    41   19   89 1    
    42   20   21 2    
    43   20   22 1    
    44   22   23 1    
    45   22   24 1    
    46   22   90 1    
    47   23   91 1    
    48   23   92 1    
    49   23   93 1    
    50   24   25 am   BACKBONE|DICT|INTERRES
    51   24   94 1    
    52   25   26 2    
    53   25   27 1    
    54   27   28 1    
    55   27   29 1    
    56   27   95 1    
    57   28   96 1    
    58   28   97 1    
    59   28   98 1    
    60   29   30 am   BACKBONE|DICT|INTERRES
    61   29   99 1    
    62   30   31 2    
    63   30   32 1    
    64   32   33 1    
    65   32   34 1    
    66   32  100 1    
    67   33  101 1    
    68   33  102 1    
    69   33  103 1    
    70   34   35 am   BACKBONE|DICT|INTERRES
    71   34  104 1    
    72   35   36 2    
    73   37   38 2    
    74   37   39 am   BACKBONE|DICT|INTERRES
    75   39   40 1    
    76   39  105 1    
    77   40   41 1    
    78   40   42 1    
    79   40  106 1    
    80   41  107 1    
    81   41  108 1    
    82   41  109 1    
    83   42   43 2    
    84   42   44 am   BACKBONE|DICT|INTERRES
    85   44   45 1    
    86   44  110 1    
    87   45   46 1    
    88   45   47 1    
    89   45  111 1    
    90   46  112 1    
    91   46  113 1    
    92   46  114 1    
    93   47   48 2    
    94   47   49 am   BACKBONE|DICT|INTERRES
    95   49   50 1    
    96   49  115 1    
    97   50   51 1    
    98   50   52 1    
    99   50  116 1    
   100   51  117 1    
   101   51  118 1    
   102   51  119 1    
   103   52   53 2    
   104   52   54 am   BACKBONE|DICT|INTERRES
   105   54   55 1    
   106   54  120 1    
   107   55   56 1    
   108   55   57 1    
   109   55  121 1    
   110   56  122 1    
   111   56  123 1    
   112   56  124 1    
   113   57   58 2    
   114   57   59 am   BACKBONE|DICT|INTERRES
   115   59   60 1    
   116   59  125 1    
   117   60   61 1    
   118   60   62 1    
   119   60  126 1    
   120   61  127 1    
   121   61  128 1    
   122   61  129 1    
   123   62   63 2    
   124   62   64 am   BACKBONE|DICT|INTERRES
   125   64   65 1    
   126   64  130 1    
   127   65   66 1    
   128   65   69 1    
   129   65  131 1    
   130   66   67 am   BACKBONE|DICT|INTERRES
   131   66   68 2    
   132   67  132 1    
   133   67  133 1    
   134   69   70 1    
   135   69  134 1    
   136   69  135 1    
   137   70   71 1    
   138   71  136 1    
   139   71  137 1    
@<TRIPOS>SUBSTRUCTURE
     1 UNK         1 GROUP             0       ****    0 ROOT    
