@<TRIPOS>MOLECULE
3R136
137   139    1
SMALL
USER_CHARGES


@<TRIPOS>ATOM
      1 CA         29.9267   20.0035   -2.3824 C.3       0 UNK        -0.1979 
      2 C          29.2415   21.0811   -1.5547 C.2       0 UNK         0.4864 
      3 O          28.9380   20.8429   -0.3857 O.2       0 UNK        -0.5359 
      4 N          29.0082   22.2555   -2.1592 N.am      1 UNK        -0.4318 
      5 CA         28.3651   23.4421   -1.5771 C.3       1 UNK         0.0824 
      6 C6         29.1755   24.1008   -0.4275 C.3       12 UNK        -0.0944 
      7 S7         30.7968   24.6968   -1.0108 S.3       12 UNK        -0.2672 
      8 C8         31.9410   23.6575   -0.0536 C.3       12 UNK         0.0333 
      9 C9         32.1742   24.2121    1.3445 C.ar      12 UNK        -0.0807 
     10 C10        32.9732   25.3467    1.5162 C.ar      12 UNK        -0.0894 
     11 C11        33.2438   25.8396    2.7953 C.ar      12 UNK        -0.0804 
     12 C12        32.7070   25.1892    3.9097 C.ar      12 UNK        -0.0824 
     13 C13        31.8969   24.0604    3.7520 C.ar      12 UNK        -0.0762 
     14 C14        31.6316   23.5763    2.4662 C.ar      12 UNK        -0.0782 
     15 C15        31.3404   23.3445    4.9752 C.3       12 UNK         0.0230 
     16 S16        29.5521   23.6111    5.1845 S.3       12 UNK        -0.2608 
     17 C17        29.4562   25.4149    5.4589 C.3       12 UNK        -0.0989 
     18 CA         28.8780   26.1589    4.2267 C.3       5 UNK         0.0716 
     19 N          27.5443   25.6561    3.8777 N.am      5 UNK        -0.4135 
     20 C          26.9193   25.8043    2.7038 C.2       4 UNK         0.5031 
     21 O          27.3891   26.4436    1.7577 O.2       4 UNK        -0.5229 
     22 CA         25.5663   25.0839    2.5713 C.3       4 UNK         0.0329 
     23 CB         24.5818   25.4315    3.7109 C.3       4 UNK        -0.2001 
     24 N          24.9736   25.2736    1.2431 N.am      4 UNK        -0.4303 
     25 C          24.3461   26.3504    0.7434 C.2       3 UNK         0.5044 
     26 O          24.0655   27.3520    1.4036 O.2       3 UNK        -0.5152 
     27 CA         23.9679   26.3274   -0.7560 C.3       3 UNK         0.0319 
     28 CB         24.5364   27.5605   -1.4809 C.3       3 UNK        -0.2001 
     29 N          24.4203   25.1259   -1.4642 N.am      3 UNK        -0.4354 
     30 C          23.8417   23.9174   -1.4099 C.2       2 UNK         0.4964 
     31 O          22.7775   23.6950   -0.8328 O.2       2 UNK        -0.5047 
     32 CA         24.5996   22.7492   -2.0752 C.3       2 UNK         0.0288 
     33 CB         24.0046   22.4414   -3.4590 C.3       2 UNK        -0.2113 
     34 N          26.0482   22.9658   -2.2099 N.am      2 UNK        -0.4145 
     35 C          26.9000   23.1548   -1.1894 C.2       1 UNK         0.5006 
     36 O          26.5554   23.1293   -0.0063 O.2       1 UNK        -0.5103 
     37 C          28.8744   27.6928    4.4126 C.2       5 UNK         0.5055 
     38 O          29.1081   28.1884    5.5155 O.2       5 UNK        -0.5220 
     39 N          28.5904   28.4133    3.3252 N.am      6 UNK        -0.4450 
     40 CA         28.5402   29.8706    3.2405 C.3       6 UNK         0.0367 
     41 CB         27.1221   30.3612    3.5922 C.3       6 UNK        -0.1929 
     42 C          29.0099   30.3421    1.8540 C.2       6 UNK         0.5070 
     43 O          28.5487   31.3764    1.3700 O.2       6 UNK        -0.5237 
     44 N          29.9154   29.5751    1.2269 N.am      7 UNK        -0.4739 
     45 CA         30.4998   29.8732   -0.0867 C.3       7 UNK         0.0276 
     46 CB         31.2285   28.6233   -0.6066 C.3       7 UNK        -0.1927 
     47 C          31.4455   31.0895   -0.0720 C.2       7 UNK         0.5013 
     48 O          31.6323   31.7282   -1.1084 O.2       7 UNK        -0.5193 
     49 N          32.0047   31.3915    1.1022 N.am      8 UNK        -0.4253 
     50 CA         32.8262   32.5510    1.4166 C.3       8 UNK         0.0242 
     51 CB         34.2943   32.2600    1.0549 C.3       8 UNK        -0.2000 
     52 C          32.6703   32.8209    2.9170 C.2       8 UNK         0.4948 
     53 O          32.2256   31.9347    3.6524 O.2       8 UNK        -0.5275 
     54 N          33.0858   34.0133    3.3654 N.am      9 UNK        -0.4246 
     55 CA         33.0750   34.4164    4.7800 C.3       9 UNK         0.0261 
     56 CB         33.5131   35.8852    4.8976 C.3       9 UNK        -0.1959 
     57 C          33.9405   33.5204    5.6882 C.2       9 UNK         0.5033 
     58 O          33.6218   33.3596    6.8671 O.2       9 UNK        -0.5390 
     59 N          34.9922   32.9227    5.1110 N.am      10 UNK        -0.4215 
     60 CA         35.8706   31.9417    5.7493 C.3       10 UNK         0.0240 
     61 CB         37.0963   31.7140    4.8488 C.3       10 UNK        -0.1982 
     62 C          35.1888   30.5974    6.0721 C.2       10 UNK         0.4970 
     63 O          35.7176   29.8584    6.9038 O.2       10 UNK        -0.4916 
     64 N          34.0552   30.2894    5.4238 N.am      11 UNK        -0.4279 
     65 CA         33.2858   29.0564    5.6556 C.3       11 UNK         0.1003 
     66 C          32.4787   29.0461    6.9858 C.2       11 UNK         0.5709 
     67 N          32.2935   30.1746    7.6629 N.am      11 UNK        -0.7358 
     68 O          32.0370   27.9867    7.4238 O.2       11 UNK        -0.4999 
     69 C69        32.3766   28.6911    4.4520 C.3       12 UNK        -0.0954 
     70 S70        33.2526   28.6217    2.8534 S.3       12 UNK        -0.2268 
     71 C71        34.1543   27.0458    2.9703 C.3       12 UNK         0.0203 
     72 H72        29.2906   19.1213   -2.4501 H         1 UNK         0.0888 
     73 H73        30.1454   20.3421   -3.3951 H         1 UNK         0.0888 
     74 H74        30.8658   19.7116   -1.9131 H         1 UNK         0.0888 
     75 H75        29.2967   22.3632   -3.1218 H         1 UNK         0.3017 
     76 H76        28.3150   24.1774   -2.3823 H         1 UNK         0.0873 
     77 H77        28.6407   24.9670   -0.0358 H         1 UNK         0.0745 
     78 H78        29.2973   23.4174    0.4143 H         1 UNK         0.0745 
     79 H79        32.8947   23.6134   -0.5816 H         1 UNK         0.0705 
     80 H80        31.5690   22.6324   -0.0160 H         1 UNK         0.0705 
     81 H81        33.3952   25.8395    0.6507 H         1 UNK         0.1334 
     82 H82        32.9284   25.5581    4.9020 H         1 UNK         0.1417 
     83 H83        31.0134   22.6971    2.3428 H         1 UNK         0.1562 
     84 H84        31.8583   23.6611    5.8820 H         1 UNK         0.0748 
     85 H85        31.5265   22.2738    4.8793 H         1 UNK         0.0748 
     86 H86        30.4463   25.7982    5.7129 H         1 UNK         0.0940 
     87 H87        28.8357   25.5921    6.3395 H         1 UNK         0.0940 
     88 H88        29.5414   25.9522    3.3832 H         1 UNK         0.0703 
     89 H89        27.0906   25.1119    4.5961 H         1 UNK         0.3081 
     90 H90        25.7820   24.0162    2.6357 H         1 UNK         0.0719 
     91 H91        24.9260   25.0369    4.6670 H         1 UNK         0.0809 
     92 H92        23.5962   25.0033    3.5277 H         1 UNK         0.0809 
     93 H93        24.4616   26.5086    3.8325 H         1 UNK         0.0809 
     94 H94        25.2152   24.5357    0.5909 H         1 UNK         0.2990 
     95 H95        22.8782   26.3724   -0.8117 H         1 UNK         0.0690 
     96 H96        24.2455   27.5744   -2.5315 H         1 UNK         0.0788 
     97 H97        25.6258   27.5896   -1.4310 H         1 UNK         0.0788 
     98 H98        24.1662   28.4845   -1.0345 H         1 UNK         0.0788 
     99 H99        25.2860   25.2115   -1.9758 H         1 UNK         0.2993 
    100 H100       24.4576   21.8736   -1.4378 H         1 UNK         0.0949 
    101 H101       22.9333   22.2462   -3.3891 H         1 UNK         0.0767 
    102 H102       24.1395   23.2735   -4.1513 H         1 UNK         0.0767 
    103 H103       24.4636   21.5568   -3.9013 H         1 UNK         0.0767 
    104 H104       26.4130   22.9802   -3.1519 H         1 UNK         0.3013 
    105 H105       28.3159   27.9014    2.4869 H         1 UNK         0.3121 
    106 H106       29.2420   30.2978    3.9602 H         1 UNK         0.0774 
    107 H107       27.0662   31.4503    3.5764 H         1 UNK         0.0815 
    108 H108       26.3821   29.9826    2.8859 H         1 UNK         0.0815 
    109 H109       26.8275   30.0394    4.5911 H         1 UNK         0.0815 
    110 H110       30.2595   28.7507    1.6984 H         1 UNK         0.2987 
    111 H111       29.6840   30.1055   -0.7749 H         1 UNK         0.0949 
    112 H112       30.5483   27.7758   -0.6927 H         1 UNK         0.0806 
    113 H113       31.6501   28.8004   -1.5969 H         1 UNK         0.0806 
    114 H114       32.0492   28.3287    0.0483 H         1 UNK         0.0806 
    115 H115       31.7713   30.8323    1.9146 H         1 UNK         0.3010 
    116 H116       32.4626   33.4183    0.8614 H         1 UNK         0.0829 
    117 H117       34.4034   32.0385   -0.0070 H         1 UNK         0.0813 
    118 H118       34.9339   33.1163    1.2713 H         1 UNK         0.0813 
    119 H119       34.6840   31.4074    1.6134 H         1 UNK         0.0813 
    120 H120       33.4382   34.6900    2.7028 H         1 UNK         0.3038 
    121 H121       32.0456   34.3367    5.1361 H         1 UNK         0.0769 
    122 H122       34.5288   36.0358    4.5295 H         1 UNK         0.0811 
    123 H123       33.4911   36.2164    5.9369 H         1 UNK         0.0811 
    124 H124       32.8500   36.5441    4.3366 H         1 UNK         0.0811 
    125 H125       35.1729   33.1259    4.1392 H         1 UNK         0.3204 
    126 H126       36.2130   32.3659    6.6956 H         1 UNK         0.0748 
    127 H127       37.7953   31.0140    5.3090 H         1 UNK         0.0771 
    128 H128       36.8139   31.3014    3.8791 H         1 UNK         0.0771 
    129 H129       37.6406   32.6426    4.6748 H         1 UNK         0.0771 
    130 H130       33.6431   30.9460    4.7707 H         1 UNK         0.2980 
    131 H131       34.0092   28.2466    5.7600 H         1 UNK         0.0545 
    132 H132       32.6659   31.0478    7.3200 H         1 UNK         0.3459 
    133 H133       31.7762   30.1504    8.5270 H         1 UNK         0.3459 
    134 H134       31.5763   29.4258    4.3560 H         1 UNK         0.0616 
    135 H135       31.8813   27.7353    4.6195 H         1 UNK         0.0616 
    136 H136       34.6876   26.9904    3.9197 H         1 UNK         0.0634 
    137 H137       34.9236   27.0343    2.1969 H         1 UNK         0.0634 
@<TRIPOS>BOND
     1    1    2 1    
     2    1   72 1    
     3    1   73 1    
     4    1   74 1    
     5    2    3 2    
     6    2    4 am   BACKBONE|DICT|INTERRES
     7    4    5 1    
     8    4   75 1    
     9    5    6 1    
    10    5   35 1    
    11    5   76 1    
    12    6    7 1    
    13    6   77 1    
    14    6   78 1    
    15    7    8 1    
    16    8    9 1    
    17    8   79 1    
    18    8   80 1    
    19    9   10 ar   
    20    9   14 ar   
    21   10   11 ar   
    22   10   81 1    
    23   11   12 ar   
    24   11   71 1    
    25   12   13 ar   
    26   12   82 1    
    27   13   14 ar   
    28   13   15 1    
    29   14   83 1    
    30   15   16 1    
    31   15   84 1    
    32   15   85 1    
    33   16   17 1    
    34   17   18 1    
    35   17   86 1    
    36   17   87 1    
    37   18   19 1    
    38   18   37 1    
    39   18   88 1    
    40   19   20 am   BACKBONE|DICT|INTERRES
    41   19   89 1    
    42   20   21 2    
    43   20   22 1    
    44   22   23 1    
    45   22   24 1    
    46   22   90 1    
    47   23   91 1    
    48   23   92 1    
    49   23   93 1    
    50   24   25 am   BACKBONE|DICT|INTERRES
    51   24   94 1    
    52   25   26 2    
    53   25   27 1    
    54   27   28 1    
    55   27   29 1    
    56   27   95 1    
    57   28   96 1    
    58   28   97 1    
    59   28   98 1    
    60   29   30 am   BACKBONE|DICT|INTERRES
    61   29   99 1    
    62   30   31 2    
    63   30   32 1    
    64   32   33 1    
    65   32   34 1    
    66   32  100 1    
    67   33  101 1    
    68   33  102 1    
    69   33  103 1    
    70   34   35 am   BACKBONE|DICT|INTERRES
    71   34  104 1    
    72   35   36 2    
    73   37   38 2    
    74   37   39 am   BACKBONE|DICT|INTERRES
    75   39   40 1    
    76   39  105 1    
    77   40   41 1    
    78   40   42 1    
    79   40  106 1    
    80   41  107 1    
    81   41  108 1    
    82   41  109 1    
    83   42   43 2    
    84   42   44 am   BACKBONE|DICT|INTERRES
    85   44   45 1    
    86   44  110 1    
    87   45   46 1    
    88   45   47 1    
    89   45  111 1    
    90   46  112 1    
    91   46  113 1    
    92   46  114 1    
    93   47   48 2    
    94   47   49 am   BACKBONE|DICT|INTERRES
    95   49   50 1    
    96   49  115 1    
    97   50   51 1    
    98   50   52 1    
    99   50  116 1    
   100   51  117 1    
   101   51  118 1    
   102   51  119 1    
   103   52   53 2    
   104   52   54 am   BACKBONE|DICT|INTERRES
   105   54   55 1    
   106   54  120 1    
   107   55   56 1    
   108   55   57 1    
   109   55  121 1    
   110   56  122 1    
   111   56  123 1    
   112   56  124 1    
   113   57   58 2    
   114   57   59 am   BACKBONE|DICT|INTERRES
   115   59   60 1    
   116   59  125 1    
   117   60   61 1    
   118   60   62 1    
   119   60  126 1    
   120   61  127 1    
   121   61  128 1    
   122   61  129 1    
   123   62   63 2    
   124   62   64 am   BACKBONE|DICT|INTERRES
   125   64   65 1    
   126   64  130 1    
   127   65   66 1    
   128   65   69 1    
   129   65  131 1    
   130   66   67 am   BACKBONE|DICT|INTERRES
   131   66   68 2    
   132   67  132 1    
   133   67  133 1    
   134   69   70 1    
   135   69  134 1    
   136   69  135 1    
   137   70   71 1    
   138   71  136 1    
   139   71  137 1    
@<TRIPOS>SUBSTRUCTURE
     1 UNK         1 GROUP             0       ****    0 ROOT    
