@<TRIPOS>MOLECULE
3R136
137   139    1
SMALL
USER_CHARGES


@<TRIPOS>ATOM
      1 CA         26.4965   19.1096   -0.7170 C.3       0 UNK        -0.1979 
      2 C          27.8343   19.3844   -0.0340 C.2       0 UNK         0.4864 
      3 O          28.2199   18.6313    0.8581 O.2       0 UNK        -0.5359 
      4 N          28.5816   20.4346   -0.4080 N.am      1 UNK        -0.4318 
      5 CA         28.2559   21.4531   -1.4168 C.3       1 UNK         0.0824 
      6 C6         29.5164   22.2637   -1.8276 C.3       12 UNK        -0.0944 
      7 S7         30.1582   23.3797   -0.5269 S.3       12 UNK        -0.2672 
      8 C8         31.5400   22.4185    0.1586 C.3       12 UNK         0.0333 
      9 C9         31.9306   22.9394    1.5335 C.ar      12 UNK        -0.0807 
     10 C10        33.1268   23.6393    1.7190 C.ar      12 UNK        -0.0894 
     11 C11        33.4915   24.0943    2.9904 C.ar      12 UNK        -0.0804 
     12 C12        32.6462   23.8522    4.0784 C.ar      12 UNK        -0.0824 
     13 C13        31.4412   23.1660    3.9028 C.ar      12 UNK        -0.0762 
     14 C14        31.0943   22.7050    2.6294 C.ar      12 UNK        -0.0782 
     15 C15        30.5243   22.8992    5.0905 C.3       12 UNK         0.0230 
     16 S16        29.7535   24.4156    5.7486 S.3       12 UNK        -0.2608 
     17 C17        28.8246   25.0457    4.3101 C.3       12 UNK        -0.0989 
     18 CA         29.3316   26.4502    3.8757 C.3       5 UNK         0.0716 
     19 N          29.5528   26.5318    2.4310 N.am      5 UNK        -0.4135 
     20 C          30.3033   27.4626    1.8263 C.2       4 UNK         0.5031 
     21 O          30.9536   28.3166    2.4230 O.2       4 UNK        -0.5229 
     22 CA         30.3299   27.4554    0.2902 C.3       4 UNK         0.0329 
     23 CB         31.5750   26.7129   -0.2183 C.3       4 UNK        -0.2001 
     24 N          29.1123   26.8886   -0.3023 N.am      4 UNK        -0.4303 
     25 C          27.9238   27.5103   -0.2661 C.2       3 UNK         0.5044 
     26 O          27.7400   28.5997    0.2760 O.2       3 UNK        -0.5152 
     27 CA         26.7290   26.7844   -0.9034 C.3       3 UNK         0.0319 
     28 CB         26.8341   26.8004   -2.4369 C.3       3 UNK        -0.2001 
     29 N          26.5367   25.4074   -0.4421 N.am      3 UNK        -0.4354 
     30 C          26.4159   24.9971    0.8272 C.2       2 UNK         0.4964 
     31 O          26.5683   25.7312    1.8028 O.2       2 UNK        -0.5047 
     32 CA         26.0822   23.5120    1.0580 C.3       2 UNK         0.0288 
     33 CB         24.5951   23.2203    0.7780 C.3       2 UNK        -0.2113 
     34 N          26.9656   22.5830    0.3415 N.am      2 UNK        -0.4145 
     35 C          27.1088   22.3912   -0.9804 C.2       1 UNK         0.5006 
     36 O          26.4163   22.9394   -1.8393 O.2       1 UNK        -0.5103 
     37 C          28.3915   27.5742    4.3577 C.2       5 UNK         0.5055 
     38 O          28.6448   28.1810    5.3991 O.2       5 UNK        -0.5220 
     39 N          27.3204   27.8246    3.5905 N.am      6 UNK        -0.4450 
     40 CA         26.3387   28.8800    3.8384 C.3       6 UNK         0.0367 
     41 CB         25.1080   28.6468    2.9472 C.3       6 UNK        -0.1929 
     42 C          26.9086   30.2908    3.6169 C.2       6 UNK         0.5070 
     43 O          26.5824   31.1996    4.3815 O.2       6 UNK        -0.5237 
     44 N          27.7361   30.4562    2.5765 N.am      7 UNK        -0.4739 
     45 CA         28.4109   31.7082    2.2418 C.3       7 UNK         0.0276 
     46 CB         28.9615   31.6200    0.8085 C.3       7 UNK        -0.1927 
     47 C          29.5298   32.0240    3.2465 C.2       7 UNK         0.5013 
     48 O          30.5997   31.4160    3.1819 O.2       7 UNK        -0.5193 
     49 N          29.2885   33.0013    4.1311 N.am      8 UNK        -0.4253 
     50 CA         30.2430   33.4800    5.1414 C.3       8 UNK         0.0242 
     51 CB         29.5495   34.5156    6.0414 C.3       8 UNK        -0.2000 
     52 C          31.5475   34.0596    4.5588 C.2       8 UNK         0.4948 
     53 O          32.5685   34.0591    5.2465 O.2       8 UNK        -0.5275 
     54 N          31.4969   34.5211    3.3011 N.am      9 UNK        -0.4246 
     55 CA         32.6530   34.9597    2.5172 C.3       9 UNK         0.0261 
     56 CB         32.1559   35.7841    1.3177 C.3       9 UNK        -0.1959 
     57 C          33.5499   33.8003    2.0368 C.2       9 UNK         0.5033 
     58 O          34.6951   34.0596    1.6627 O.2       9 UNK        -0.5390 
     59 N          33.0277   32.5653    2.0355 N.am      10 UNK        -0.4215 
     60 CA         33.7488   31.3441    1.6905 C.3       10 UNK         0.0240 
     61 CB         32.9133   30.5224    0.6890 C.3       10 UNK        -0.1982 
     62 C          34.0910   30.6059    2.9943 C.2       10 UNK         0.4970 
     63 O          34.9705   31.0735    3.7201 O.2       10 UNK        -0.4916 
     64 N          33.4217   29.4816    3.2733 N.am      11 UNK        -0.4279 
     65 CA         33.6326   28.6652    4.4778 C.3       11 UNK         0.1003 
     66 C          32.6846   29.0434    5.6507 C.2       11 UNK         0.5709 
     67 N          31.6688   29.8756    5.4565 N.am      11 UNK        -0.7358 
     68 O          32.8869   28.5804    6.7709 O.2       11 UNK        -0.4999 
     69 C69        33.5509   27.1458    4.1735 C.3       12 UNK        -0.0954 
     70 S70        34.6597   26.6073    2.8291 S.3       12 UNK        -0.2268 
     71 C71        34.8088   24.8307    3.1912 C.3       12 UNK         0.0203 
     72 H72        26.1262   18.1228   -0.4397 H         1 UNK         0.0888 
     73 H73        25.7478   19.8401   -0.4123 H         1 UNK         0.0888 
     74 H74        26.5888   19.1276   -1.8020 H         1 UNK         0.0888 
     75 H75        29.4693   20.5649    0.0528 H         1 UNK         0.3017 
     76 H76        27.9121   20.9332   -2.3126 H         1 UNK         0.0873 
     77 H77        29.2882   22.8773   -2.7013 H         1 UNK         0.0745 
     78 H78        30.3097   21.5881   -2.1521 H         1 UNK         0.0745 
     79 H79        32.3837   22.4630   -0.5318 H         1 UNK         0.0705 
     80 H80        31.2633   21.3672    0.2414 H         1 UNK         0.0705 
     81 H81        33.7787   23.8268    0.8766 H         1 UNK         0.1334 
     82 H82        32.9212   24.2017    5.0641 H         1 UNK         0.1417 
     83 H83        30.1696   22.1630    2.4868 H         1 UNK         0.1562 
     84 H84        31.1014   22.4259    5.8861 H         1 UNK         0.0748 
     85 H85        29.7384   22.1906    4.8242 H         1 UNK         0.0748 
     86 H86        27.7604   25.0456    4.5568 H         1 UNK         0.0940 
     87 H87        28.9143   24.3301    3.4927 H         1 UNK         0.0940 
     88 H88        30.2989   26.6371    4.3454 H         1 UNK         0.0703 
     89 H89        29.0262   25.8936    1.8538 H         1 UNK         0.3081 
     90 H90        30.4064   28.4934   -0.0404 H         1 UNK         0.0719 
     91 H91        31.6340   25.7017    0.1811 H         1 UNK         0.0809 
     92 H92        31.5946   26.6532   -1.3064 H         1 UNK         0.0809 
     93 H93        32.4841   27.2266    0.0966 H         1 UNK         0.0809 
     94 H94        29.1867   25.9841   -0.7471 H         1 UNK         0.2990 
     95 H95        25.8311   27.3388   -0.6231 H         1 UNK         0.0690 
     96 H96        27.6735   26.2014   -2.7925 H         1 UNK         0.0788 
     97 H97        26.9748   27.8162   -2.8095 H         1 UNK         0.0788 
     98 H98        25.9270   26.4105   -2.8993 H         1 UNK         0.0788 
     99 H99        26.4148   24.6974   -1.1599 H         1 UNK         0.2993 
    100 H100       26.2537   23.3209    2.1189 H         1 UNK         0.0949 
    101 H101       24.3267   23.4035   -0.2627 H         1 UNK         0.0767 
    102 H102       24.3452   22.1850    1.0105 H         1 UNK         0.0767 
    103 H103       23.9541   23.8541    1.3924 H         1 UNK         0.0767 
    104 H104       27.6183   22.0865    0.9315 H         1 UNK         0.3013 
    105 H105       27.1477   27.2231    2.7883 H         1 UNK         0.3121 
    106 H106       26.0236   28.8090    4.8816 H         1 UNK         0.0774 
    107 H107       24.3475   29.4085    3.1237 H         1 UNK         0.0815 
    108 H108       25.3656   28.6799    1.8877 H         1 UNK         0.0815 
    109 H109       24.6508   27.6778    3.1485 H         1 UNK         0.0815 
    110 H110       27.9172   29.6660    1.9648 H         1 UNK         0.2987 
    111 H111       27.6755   32.5154    2.2666 H         1 UNK         0.0949 
    112 H112       29.6365   30.7727    0.6896 H         1 UNK         0.0806 
    113 H113       28.1561   31.5029    0.0832 H         1 UNK         0.0806 
    114 H114       29.5142   32.5212    0.5402 H         1 UNK         0.0806 
    115 H115       28.3707   33.4241    4.1418 H         1 UNK         0.3010 
    116 H116       30.5220   32.6232    5.7581 H         1 UNK         0.0829 
    117 H117       30.2249   34.8688    6.8221 H         1 UNK         0.0813 
    118 H118       29.2215   35.3882    5.4751 H         1 UNK         0.0813 
    119 H119       28.6782   34.0894    6.5392 H         1 UNK         0.0813 
    120 H120       30.6062   34.5054    2.8265 H         1 UNK         0.3038 
    121 H121       33.2672   35.6073    3.1468 H         1 UNK         0.0769 
    122 H122       32.9938   36.1600    0.7287 H         1 UNK         0.0811 
    123 H123       31.5776   36.6495    1.6419 H         1 UNK         0.0811 
    124 H124       31.5300   35.1903    0.6502 H         1 UNK         0.0811 
    125 H125       32.1024   32.4181    2.4287 H         1 UNK         0.3204 
    126 H126       34.6981   31.5818    1.2061 H         1 UNK         0.0748 
    127 H127       33.3927   29.5696    0.4611 H         1 UNK         0.0771 
    128 H128       31.9141   30.3134    1.0668 H         1 UNK         0.0771 
    129 H129       32.7989   31.0581   -0.2533 H         1 UNK         0.0771 
    130 H130       32.6395   29.1891    2.6931 H         1 UNK         0.2980 
    131 H131       34.6422   28.8502    4.8487 H         1 UNK         0.0545 
    132 H132       31.4569   30.2392    4.5327 H         1 UNK         0.3459 
    133 H133       31.0558   30.0814    6.2272 H         1 UNK         0.3459 
    134 H134       33.8002   26.5764    5.0705 H         1 UNK         0.0616 
    135 H135       32.5363   26.8576    3.9032 H         1 UNK         0.0616 
    136 H136       35.1736   24.6959    4.2106 H         1 UNK         0.0634 
    137 H137       35.5707   24.4035    2.5377 H         1 UNK         0.0634 
@<TRIPOS>BOND
     1    1    2 1    
     2    1   72 1    
     3    1   73 1    
     4    1   74 1    
     5    2    3 2    
     6    2    4 am   BACKBONE|DICT|INTERRES
     7    4    5 1    
     8    4   75 1    
     9    5    6 1    
    10    5   35 1    
    11    5   76 1    
    12    6    7 1    
    13    6   77 1    
    14    6   78 1    
    15    7    8 1    
    16    8    9 1    
    17    8   79 1    
    18    8   80 1    
    19    9   10 ar   
    20    9   14 ar   
    21   10   11 ar   
    22   10   81 1    
    23   11   12 ar   
    24   11   71 1    
    25   12   13 ar   
    26   12   82 1    
    27   13   14 ar   
    28   13   15 1    
    29   14   83 1    
    30   15   16 1    
    31   15   84 1    
    32   15   85 1    
    33   16   17 1    
    34   17   18 1    
    35   17   86 1    
    36   17   87 1    
    37   18   19 1    
    38   18   37 1    
    39   18   88 1    
    40   19   20 am   BACKBONE|DICT|INTERRES
    41   19   89 1    
    42   20   21 2    
    43   20   22 1    
    44   22   23 1    
    45   22   24 1    
    46   22   90 1    
    47   23   91 1    
    48   23   92 1    
    49   23   93 1    
    50   24   25 am   BACKBONE|DICT|INTERRES
    51   24   94 1    
    52   25   26 2    
    53   25   27 1    
    54   27   28 1    
    55   27   29 1    
    56   27   95 1    
    57   28   96 1    
    58   28   97 1    
    59   28   98 1    
    60   29   30 am   BACKBONE|DICT|INTERRES
    61   29   99 1    
    62   30   31 2    
    63   30   32 1    
    64   32   33 1    
    65   32   34 1    
    66   32  100 1    
    67   33  101 1    
    68   33  102 1    
    69   33  103 1    
    70   34   35 am   BACKBONE|DICT|INTERRES
    71   34  104 1    
    72   35   36 2    
    73   37   38 2    
    74   37   39 am   BACKBONE|DICT|INTERRES
    75   39   40 1    
    76   39  105 1    
    77   40   41 1    
    78   40   42 1    
    79   40  106 1    
    80   41  107 1    
    81   41  108 1    
    82   41  109 1    
    83   42   43 2    
    84   42   44 am   BACKBONE|DICT|INTERRES
    85   44   45 1    
    86   44  110 1    
    87   45   46 1    
    88   45   47 1    
    89   45  111 1    
    90   46  112 1    
    91   46  113 1    
    92   46  114 1    
    93   47   48 2    
    94   47   49 am   BACKBONE|DICT|INTERRES
    95   49   50 1    
    96   49  115 1    
    97   50   51 1    
    98   50   52 1    
    99   50  116 1    
   100   51  117 1    
   101   51  118 1    
   102   51  119 1    
   103   52   53 2    
   104   52   54 am   BACKBONE|DICT|INTERRES
   105   54   55 1    
   106   54  120 1    
   107   55   56 1    
   108   55   57 1    
   109   55  121 1    
   110   56  122 1    
   111   56  123 1    
   112   56  124 1    
   113   57   58 2    
   114   57   59 am   BACKBONE|DICT|INTERRES
   115   59   60 1    
   116   59  125 1    
   117   60   61 1    
   118   60   62 1    
   119   60  126 1    
   120   61  127 1    
   121   61  128 1    
   122   61  129 1    
   123   62   63 2    
   124   62   64 am   BACKBONE|DICT|INTERRES
   125   64   65 1    
   126   64  130 1    
   127   65   66 1    
   128   65   69 1    
   129   65  131 1    
   130   66   67 am   BACKBONE|DICT|INTERRES
   131   66   68 2    
   132   67  132 1    
   133   67  133 1    
   134   69   70 1    
   135   69  134 1    
   136   69  135 1    
   137   70   71 1    
   138   71  136 1    
   139   71  137 1    
@<TRIPOS>SUBSTRUCTURE
     1 UNK         1 GROUP             0       ****    0 ROOT    
