@<TRIPOS>MOLECULE
3R136
137   139    1
SMALL
USER_CHARGES


@<TRIPOS>ATOM
      1 CA         27.2525   21.1043    2.1456 C.3       0 UNK        -0.1979 
      2 C          27.7974   21.6082    0.8180 C.2       0 UNK         0.4864 
      3 O          27.2747   21.2423   -0.2363 O.2       0 UNK        -0.5359 
      4 N          28.8532   22.4300    0.8617 N.am      1 UNK        -0.4318 
      5 CA         29.4941   23.0248   -0.3167 C.3       1 UNK         0.0824 
      6 C6         30.9373   23.4994   -0.0178 C.3       12 UNK        -0.0944 
      7 S7         31.9887   22.1184    0.5516 S.3       12 UNK        -0.2672 
      8 C8         33.1271   22.9383    1.7185 C.3       12 UNK         0.0333 
      9 C9         32.4325   23.6646    2.8678 C.ar      12 UNK        -0.0807 
     10 C10        32.8672   24.9425    3.2317 C.ar      12 UNK        -0.0894 
     11 C11        32.2643   25.6276    4.2897 C.ar      12 UNK        -0.0804 
     12 C12        31.2102   25.0287    4.9820 C.ar      12 UNK        -0.0824 
     13 C13        30.7406   23.7665    4.6094 C.ar      12 UNK        -0.0762 
     14 C14        31.3712   23.0780    3.5679 C.ar      12 UNK        -0.0782 
     15 C15        29.5411   23.1564    5.3184 C.3       12 UNK         0.0230 
     16 S16        27.9724   23.7047    4.5658 S.3       12 UNK        -0.2608 
     17 C17        27.7796   25.3886    5.2452 C.3       12 UNK        -0.0989 
     18 CA         27.9806   26.4943    4.1777 C.3       5 UNK         0.0716 
     19 N          26.9671   26.4177    3.1148 N.am      5 UNK        -0.4135 
     20 C          26.9024   27.2211    2.0455 C.2       4 UNK         0.5031 
     21 O          27.6801   28.1575    1.8359 O.2       4 UNK        -0.5229 
     22 CA         25.7312   26.9985    1.0845 C.3       4 UNK         0.0329 
     23 CB         24.4605   27.6970    1.6082 C.3       4 UNK        -0.2001 
     24 N          26.1294   27.5436   -0.2075 N.am      4 UNK        -0.4303 
     25 C          25.5236   27.3596   -1.3835 C.2       3 UNK         0.5044 
     26 O          24.4687   26.7430   -1.5317 O.2       3 UNK        -0.5152 
     27 CA         26.2430   27.9300   -2.6198 C.3       3 UNK         0.0319 
     28 CB         25.7633   29.3641   -2.8956 C.3       3 UNK        -0.2001 
     29 N          27.7054   27.9319   -2.4809 N.am      3 UNK        -0.4354 
     30 C          28.5360   26.8770   -2.5193 C.2       2 UNK         0.4964 
     31 O          29.7446   27.0094   -2.3266 O.2       2 UNK        -0.5047 
     32 CA         27.9965   25.4747   -2.8844 C.3       2 UNK         0.0288 
     33 CB         28.1080   25.2398   -4.4001 C.3       2 UNK        -0.2113 
     34 N          28.7214   24.4113   -2.1854 N.am      2 UNK        -0.4145 
     35 C          28.6379   24.1811   -0.8680 C.2       1 UNK         0.5006 
     36 O          27.9313   24.8401   -0.1014 O.2       1 UNK        -0.5103 
     37 C          28.0414   27.8802    4.8584 C.2       5 UNK         0.5055 
     38 O          29.1309   28.3385    5.2008 O.2       5 UNK        -0.5220 
     39 N          26.8756   28.5203    5.0310 N.am      6 UNK        -0.4450 
     40 CA         26.7416   29.8617    5.6036 C.3       6 UNK         0.0367 
     41 CB         25.3441   29.9991    6.2298 C.3       6 UNK        -0.1929 
     42 C          26.9775   30.9883    4.5808 C.2       6 UNK         0.5070 
     43 O          27.2711   32.1106    4.9918 O.2       6 UNK        -0.5237 
     44 N          26.8307   30.6947    3.2812 N.am      7 UNK        -0.4739 
     45 CA         27.0291   31.6580    2.1947 C.3       7 UNK         0.0276 
     46 CB         26.1545   31.2742    0.9894 C.3       7 UNK        -0.1927 
     47 C          28.5066   31.7426    1.7903 C.2       7 UNK         0.5013 
     48 O          29.0319   32.8429    1.6236 O.2       7 UNK        -0.5193 
     49 N          29.1584   30.5792    1.6752 N.am      8 UNK        -0.4253 
     50 CA         30.5691   30.4245    1.3167 C.3       8 UNK         0.0242 
     51 CB         30.7097   29.1655    0.4395 C.3       8 UNK        -0.2000 
     52 C          31.4797   30.3581    2.5579 C.2       8 UNK         0.4948 
     53 O          32.5264   29.7159    2.4934 O.2       8 UNK        -0.5275 
     54 N          31.0748   31.0142    3.6568 N.am      9 UNK        -0.4246 
     55 CA         31.5931   30.9088    5.0309 C.3       9 UNK         0.0261 
     56 CB         30.8344   31.9101    5.9180 C.3       9 UNK        -0.1959 
     57 C          33.1134   31.0470    5.2550 C.2       9 UNK         0.5033 
     58 O          33.5855   30.6720    6.3293 O.2       9 UNK        -0.5390 
     59 N          33.8592   31.5645    4.2706 N.am      10 UNK        -0.4215 
     60 CA         35.3255   31.5514    4.2528 C.3       10 UNK         0.0240 
     61 CB         35.8253   32.4961    3.1477 C.3       10 UNK        -0.1982 
     62 C          35.9156   30.1380    4.0618 C.2       10 UNK         0.4970 
     63 O          37.0425   29.8990    4.4971 O.2       10 UNK        -0.4916 
     64 N          35.1546   29.2439    3.4134 N.am      11 UNK        -0.4279 
     65 CA         35.4858   27.8386    3.1213 C.3       11 UNK         0.1003 
     66 C          36.6847   27.6316    2.1457 C.2       11 UNK         0.5709 
     67 N          37.1042   28.6397    1.3899 N.am      11 UNK        -0.7358 
     68 O          37.2233   26.5319    2.0412 O.2       11 UNK        -0.4999 
     69 C69        35.5854   26.9410    4.3950 C.3       12 UNK        -0.0954 
     70 S70        34.2361   27.0929    5.6253 S.3       12 UNK        -0.2268 
     71 C71        32.6993   27.0394    4.6484 C.3       12 UNK         0.0203 
     72 H72        28.0084   21.1446    2.9294 H         1 UNK         0.0888 
     73 H73        26.4004   21.7082    2.4561 H         1 UNK         0.0888 
     74 H74        26.9236   20.0695    2.0533 H         1 UNK         0.0888 
     75 H75        29.2108   22.7391    1.7534 H         1 UNK         0.3017 
     76 H76        29.5478   22.2550   -1.0902 H         1 UNK         0.0873 
     77 H77        30.9265   24.2979    0.7262 H         1 UNK         0.0745 
     78 H78        31.3988   23.9233   -0.9118 H         1 UNK         0.0745 
     79 H79        33.7977   22.1871    2.1374 H         1 UNK         0.0705 
     80 H80        33.7541   23.6279    1.1511 H         1 UNK         0.0705 
     81 H81        33.6762   25.4055    2.6864 H         1 UNK         0.1334 
     82 H82        30.7360   25.5635    5.7926 H         1 UNK         0.1417 
     83 H83        31.0258   22.0917    3.2897 H         1 UNK         0.1562 
     84 H84        29.5557   23.4036    6.3810 H         1 UNK         0.0748 
     85 H85        29.5919   22.0679    5.2632 H         1 UNK         0.0748 
     86 H86        28.4690   25.5189    6.0806 H         1 UNK         0.0940 
     87 H87        26.7820   25.4612    5.6828 H         1 UNK         0.0940 
     88 H88        28.9498   26.3395    3.6984 H         1 UNK         0.0703 
     89 H89        26.2996   25.6648    3.1992 H         1 UNK         0.3081 
     90 H90        25.5559   25.9261    0.9770 H         1 UNK         0.0719 
     91 H91        24.1720   27.3090    2.5857 H         1 UNK         0.0809 
     92 H92        24.6034   28.7727    1.7121 H         1 UNK         0.0809 
     93 H93        23.6128   27.5384    0.9418 H         1 UNK         0.0809 
     94 H94        27.0205   28.0236   -0.1779 H         1 UNK         0.2990 
     95 H95        25.9712   27.3191   -3.4826 H         1 UNK         0.0690 
     96 H96        26.2074   29.7627   -3.8080 H         1 UNK         0.0788 
     97 H97        26.0121   30.0409   -2.0771 H         1 UNK         0.0788 
     98 H98        24.6803   29.3948   -3.0250 H         1 UNK         0.0788 
     99 H99        28.1181   28.8343   -2.2964 H         1 UNK         0.2993 
    100 H100       26.9504   25.3746   -2.5991 H         1 UNK         0.0949 
    101 H101       29.1434   25.2866   -4.7406 H         1 UNK         0.0767 
    102 H102       27.7044   24.2673   -4.6830 H         1 UNK         0.0767 
    103 H103       27.5494   25.9943   -4.9557 H         1 UNK         0.0767 
    104 H104       29.3526   23.8546   -2.7430 H         1 UNK         0.3013 
    105 H105       26.0251   28.0623    4.7376 H         1 UNK         0.3121 
    106 H106       27.4817   29.9826    6.3981 H         1 UNK         0.0774 
    107 H107       25.2204   30.9778    6.6957 H         1 UNK         0.0815 
    108 H108       24.5538   29.8911    5.4858 H         1 UNK         0.0815 
    109 H109       25.1813   29.2511    7.0060 H         1 UNK         0.0815 
    110 H110       26.6675   29.7338    3.0145 H         1 UNK         0.2987 
    111 H111       26.7172   32.6499    2.5306 H         1 UNK         0.0949 
    112 H112       26.4137   30.2934    0.5920 H         1 UNK         0.0806 
    113 H113       26.2732   31.9940    0.1784 H         1 UNK         0.0806 
    114 H114       25.0976   31.2605    1.2555 H         1 UNK         0.0806 
    115 H115       28.6441   29.7150    1.8401 H         1 UNK         0.3010 
    116 H116       30.8942   31.2836    0.7263 H         1 UNK         0.0829 
    117 H117       30.4486   28.2604    0.9903 H         1 UNK         0.0813 
    118 H118       31.7318   29.0450    0.0783 H         1 UNK         0.0813 
    119 H119       30.0651   29.2181   -0.4376 H         1 UNK         0.0813 
    120 H120       30.2204   31.5445    3.5632 H         1 UNK         0.3038 
    121 H121       31.3363   29.9052    5.3728 H         1 UNK         0.0769 
    122 H122       29.7667   31.6945    5.9331 H         1 UNK         0.0811 
    123 H123       30.9681   32.9360    5.5731 H         1 UNK         0.0811 
    124 H124       31.1796   31.8652    6.9520 H         1 UNK         0.0811 
    125 H125       33.3907   31.8308    3.4166 H         1 UNK         0.3204 
    126 H126       35.6824   31.9293    5.2133 H         1 UNK         0.0748 
    127 H127       35.4840   32.1813    2.1606 H         1 UNK         0.0771 
    128 H128       35.4802   33.5170    3.3129 H         1 UNK         0.0771 
    129 H129       36.9157   32.5248    3.1225 H         1 UNK         0.0771 
    130 H130       34.2341   29.5341    3.0881 H         1 UNK         0.2980 
    131 H131       34.6417   27.4799    2.5358 H         1 UNK         0.0545 
    132 H132       37.8719   28.4934    0.7538 H         1 UNK         0.3459 
    133 H133       36.6639   29.5429    1.4536 H         1 UNK         0.3459 
    134 H134       36.5183   27.1538    4.9195 H         1 UNK         0.0616 
    135 H135       35.6421   25.8896    4.1092 H         1 UNK         0.0616 
    136 H136       32.7941   27.6258    3.7418 H         1 UNK         0.0634 
    137 H137       31.9174   27.5307    5.2291 H         1 UNK         0.0634 
@<TRIPOS>BOND
     1    1    2 1    
     2    1   72 1    
     3    1   73 1    
     4    1   74 1    
     5    2    3 2    
     6    2    4 am   BACKBONE|DICT|INTERRES
     7    4    5 1    
     8    4   75 1    
     9    5    6 1    
    10    5   35 1    
    11    5   76 1    
    12    6    7 1    
    13    6   77 1    
    14    6   78 1    
    15    7    8 1    
    16    8    9 1    
    17    8   79 1    
    18    8   80 1    
    19    9   10 ar   
    20    9   14 ar   
    21   10   11 ar   
    22   10   81 1    
    23   11   12 ar   
    24   11   71 1    
    25   12   13 ar   
    26   12   82 1    
    27   13   14 ar   
    28   13   15 1    
    29   14   83 1    
    30   15   16 1    
    31   15   84 1    
    32   15   85 1    
    33   16   17 1    
    34   17   18 1    
    35   17   86 1    
    36   17   87 1    
    37   18   19 1    
    38   18   37 1    
    39   18   88 1    
    40   19   20 am   BACKBONE|DICT|INTERRES
    41   19   89 1    
    42   20   21 2    
    43   20   22 1    
    44   22   23 1    
    45   22   24 1    
    46   22   90 1    
    47   23   91 1    
    48   23   92 1    
    49   23   93 1    
    50   24   25 am   BACKBONE|DICT|INTERRES
    51   24   94 1    
    52   25   26 2    
    53   25   27 1    
    54   27   28 1    
    55   27   29 1    
    56   27   95 1    
    57   28   96 1    
    58   28   97 1    
    59   28   98 1    
    60   29   30 am   BACKBONE|DICT|INTERRES
    61   29   99 1    
    62   30   31 2    
    63   30   32 1    
    64   32   33 1    
    65   32   34 1    
    66   32  100 1    
    67   33  101 1    
    68   33  102 1    
    69   33  103 1    
    70   34   35 am   BACKBONE|DICT|INTERRES
    71   34  104 1    
    72   35   36 2    
    73   37   38 2    
    74   37   39 am   BACKBONE|DICT|INTERRES
    75   39   40 1    
    76   39  105 1    
    77   40   41 1    
    78   40   42 1    
    79   40  106 1    
    80   41  107 1    
    81   41  108 1    
    82   41  109 1    
    83   42   43 2    
    84   42   44 am   BACKBONE|DICT|INTERRES
    85   44   45 1    
    86   44  110 1    
    87   45   46 1    
    88   45   47 1    
    89   45  111 1    
    90   46  112 1    
    91   46  113 1    
    92   46  114 1    
    93   47   48 2    
    94   47   49 am   BACKBONE|DICT|INTERRES
    95   49   50 1    
    96   49  115 1    
    97   50   51 1    
    98   50   52 1    
    99   50  116 1    
   100   51  117 1    
   101   51  118 1    
   102   51  119 1    
   103   52   53 2    
   104   52   54 am   BACKBONE|DICT|INTERRES
   105   54   55 1    
   106   54  120 1    
   107   55   56 1    
   108   55   57 1    
   109   55  121 1    
   110   56  122 1    
   111   56  123 1    
   112   56  124 1    
   113   57   58 2    
   114   57   59 am   BACKBONE|DICT|INTERRES
   115   59   60 1    
   116   59  125 1    
   117   60   61 1    
   118   60   62 1    
   119   60  126 1    
   120   61  127 1    
   121   61  128 1    
   122   61  129 1    
   123   62   63 2    
   124   62   64 am   BACKBONE|DICT|INTERRES
   125   64   65 1    
   126   64  130 1    
   127   65   66 1    
   128   65   69 1    
   129   65  131 1    
   130   66   67 am   BACKBONE|DICT|INTERRES
   131   66   68 2    
   132   67  132 1    
   133   67  133 1    
   134   69   70 1    
   135   69  134 1    
   136   69  135 1    
   137   70   71 1    
   138   71  136 1    
   139   71  137 1    
@<TRIPOS>SUBSTRUCTURE
     1 UNK         1 GROUP             0       ****    0 ROOT    
