@<TRIPOS>MOLECULE
3R136
137   139    1
SMALL
USER_CHARGES


@<TRIPOS>ATOM
      1 CA         25.0426   21.2422    0.8061 C.3       0 UNK        -0.1979 
      2 C          26.0924   22.2464    0.3569 C.2       0 UNK         0.4864 
      3 O          25.8357   23.4510    0.3845 O.2       0 UNK        -0.5359 
      4 N          27.2787   21.7649   -0.0426 N.am      1 UNK        -0.4318 
      5 CA         28.4074   22.5833   -0.5057 C.3       1 UNK         0.0824 
      6 C6         29.5623   21.7241   -1.0811 C.3       12 UNK        -0.0944 
      7 S7         30.2703   20.5168    0.0988 S.3       12 UNK        -0.2672 
      8 C8         32.0579   20.8585   -0.0140 C.3       12 UNK         0.0333 
      9 C9         32.4420   22.1832    0.6321 C.ar      12 UNK        -0.0807 
     10 C10        32.5933   22.2732    2.0200 C.ar      12 UNK        -0.0894 
     11 C11        32.9514   23.4846    2.6222 C.ar      12 UNK        -0.0804 
     12 C12        33.1484   24.6131    1.8175 C.ar      12 UNK        -0.0824 
     13 C13        33.0142   24.5333    0.4296 C.ar      12 UNK        -0.0762 
     14 C14        32.6656   23.3148   -0.1581 C.ar      12 UNK        -0.0782 
     15 C15        33.2596   25.7586   -0.4383 C.3       12 UNK         0.0230 
     16 S16        31.7054   26.5702   -0.9218 S.3       12 UNK        -0.2608 
     17 C17        31.2308   27.3916    0.6359 C.3       12 UNK        -0.0989 
     18 CA         30.0147   28.3241    0.4325 C.3       5 UNK         0.0716 
     19 N          28.7722   27.5827    0.1987 N.am      5 UNK        -0.4135 
     20 C          27.6312   28.1318   -0.2415 C.2       4 UNK         0.5031 
     21 O          27.5071   29.3242   -0.5220 O.2       4 UNK        -0.5229 
     22 CA         26.4105   27.2036   -0.3637 C.3       4 UNK         0.0329 
     23 CB         26.5045   26.3239   -1.6208 C.3       4 UNK        -0.2001 
     24 N          26.2276   26.3638    0.8210 N.am      4 UNK        -0.4303 
     25 C          25.9348   26.8329    2.0430 C.2       3 UNK         0.5044 
     26 O          25.7084   28.0178    2.2901 O.2       3 UNK        -0.5152 
     27 CA         25.9240   25.8116    3.1918 C.3       3 UNK         0.0319 
     28 CB         24.5679   25.0933    3.2786 C.3       3 UNK        -0.2001 
     29 N          27.0012   24.8270    3.0710 N.am      3 UNK        -0.4354 
     30 C          28.3029   25.1151    3.2125 C.2       2 UNK         0.4964 
     31 O          28.7317   26.2341    3.4881 O.2       2 UNK        -0.5047 
     32 CA         29.3010   23.9726    2.9769 C.3       2 UNK         0.0288 
     33 CB         29.4150   23.0849    4.2262 C.3       2 UNK        -0.2113 
     34 N          28.9584   23.1461    1.8206 N.am      2 UNK        -0.4145 
     35 C          28.8897   23.5913    0.5575 C.2       1 UNK         0.5006 
     36 O          29.1145   24.7553    0.2293 O.2       1 UNK        -0.5103 
     37 C          29.8828   29.3453    1.5795 C.2       5 UNK         0.5055 
     38 O          30.3368   30.4781    1.4079 O.2       5 UNK        -0.5220 
     39 N          29.2189   28.9697    2.6868 N.am      6 UNK        -0.4450 
     40 CA         29.0043   29.8058    3.8787 C.3       6 UNK         0.0367 
     41 CB         28.1948   29.0271    4.9284 C.3       6 UNK        -0.1929 
     42 C          28.3306   31.1649    3.6175 C.2       6 UNK         0.5070 
     43 O          28.5349   32.0930    4.4005 O.2       6 UNK        -0.5237 
     44 N          27.5614   31.2729    2.5248 N.am      7 UNK        -0.4739 
     45 CA         26.9720   32.5246    2.0445 C.3       7 UNK         0.0276 
     46 CB         25.9623   32.2114    0.9292 C.3       7 UNK        -0.1927 
     47 C          28.0180   33.5476    1.5575 C.2       7 UNK         0.5013 
     48 O          27.7318   34.7454    1.5838 O.2       7 UNK        -0.5193 
     49 N          29.1973   33.0717    1.1322 N.am      8 UNK        -0.4253 
     50 CA         30.3449   33.8966    0.7625 C.3       8 UNK         0.0242 
     51 CB         31.0591   33.2874   -0.4571 C.3       8 UNK        -0.2000 
     52 C          31.2983   34.0416    1.9568 C.2       8 UNK         0.4948 
     53 O          31.5680   35.1693    2.3727 O.2       8 UNK        -0.5275 
     54 N          31.7805   32.9128    2.4946 N.am      9 UNK        -0.4246 
     55 CA         32.7030   32.8400    3.6293 C.3       9 UNK         0.0261 
     56 CB         34.1074   33.3336    3.2248 C.3       9 UNK        -0.1959 
     57 C          32.7752   31.3913    4.1226 C.2       9 UNK         0.5033 
     58 O          32.5941   30.4741    3.3229 O.2       9 UNK        -0.5390 
     59 N          33.0613   31.2083    5.4183 N.am      10 UNK        -0.4215 
     60 CA         33.1979   29.8999    6.0690 C.3       10 UNK         0.0240 
     61 CB         33.3771   30.1212    7.5809 C.3       10 UNK        -0.1982 
     62 C          34.3778   29.0712    5.5025 C.2       10 UNK         0.4970 
     63 O          35.3782   29.6688    5.1021 O.2       10 UNK        -0.4916 
     64 N          34.3354   27.7303    5.5165 N.am      11 UNK        -0.4279 
     65 CA         33.2268   26.8507    5.9203 C.3       11 UNK         0.1003 
     66 C          32.0164   26.8742    4.9449 C.2       11 UNK         0.5709 
     67 N          30.8481   26.4533    5.4057 N.am      11 UNK        -0.7358 
     68 O          32.1306   27.2436    3.7814 O.2       11 UNK        -0.4999 
     69 C69        33.7318   25.4030    6.1835 C.3       12 UNK        -0.0954 
     70 S70        34.4669   24.5788    4.7241 S.3       12 UNK        -0.2268 
     71 C71        33.0556   23.5752    4.1421 C.3       12 UNK         0.0203 
     72 H72        25.4087   20.2172    0.7519 H         1 UNK         0.0888 
     73 H73        24.7472   21.4441    1.8353 H         1 UNK         0.0888 
     74 H74        24.1573   21.3209    0.1759 H         1 UNK         0.0888 
     75 H75        27.4413   20.7676   -0.0351 H         1 UNK         0.3017 
     76 H76        28.0225   23.1849   -1.3321 H         1 UNK         0.0873 
     77 H77        29.1973   21.1626   -1.9424 H         1 UNK         0.0745 
     78 H78        30.3464   22.3704   -1.4763 H         1 UNK         0.0745 
     79 H79        32.5988   20.0488    0.4780 H         1 UNK         0.0705 
     80 H80        32.3662   20.8337   -1.0605 H         1 UNK         0.0705 
     81 H81        32.4176   21.3986    2.6314 H         1 UNK         0.1334 
     82 H82        33.4042   25.5603    2.2711 H         1 UNK         0.1417 
     83 H83        32.5626   23.2538   -1.2328 H         1 UNK         0.1562 
     84 H84        33.7950   25.4618   -1.3413 H         1 UNK         0.0748 
     85 H85        33.9046   26.4744    0.0739 H         1 UNK         0.0748 
     86 H86        32.0947   27.9530    0.9996 H         1 UNK         0.0940 
     87 H87        31.0137   26.6355    1.3930 H         1 UNK         0.0940 
     88 H88        30.2018   28.9137   -0.4681 H         1 UNK         0.0703 
     89 H89        28.8171   26.5747    0.3385 H         1 UNK         0.3081 
     90 H90        25.5239   27.8338   -0.4603 H         1 UNK         0.0719 
     91 H91        27.3740   25.6673   -1.5945 H         1 UNK         0.0809 
     92 H92        25.6185   25.6987   -1.7339 H         1 UNK         0.0809 
     93 H93        26.5871   26.9373   -2.5189 H         1 UNK         0.0809 
     94 H94        26.3380   25.3609    0.6996 H         1 UNK         0.2990 
     95 H95        26.0755   26.3607    4.1237 H         1 UNK         0.0690 
     96 H96        24.5323   24.4144    4.1307 H         1 UNK         0.0788 
     97 H97        24.3549   24.5152    2.3789 H         1 UNK         0.0788 
     98 H98        23.7562   25.8113    3.4030 H         1 UNK         0.0788 
     99 H99        26.7372   23.8931    2.7934 H         1 UNK         0.2993 
    100 H100       30.2731   24.4288    2.7798 H         1 UNK         0.0949 
    101 H101       30.1803   22.3191    4.0993 H         1 UNK         0.0767 
    102 H102       29.6896   23.6755    5.1013 H         1 UNK         0.0767 
    103 H103       28.4742   22.5828    4.4548 H         1 UNK         0.0767 
    104 H104       28.7658   22.1699    1.9905 H         1 UNK         0.3013 
    105 H105       28.9150   28.0026    2.7647 H         1 UNK         0.3121 
    106 H106       29.9898   30.0151    4.2983 H         1 UNK         0.0774 
    107 H107       27.2403   28.6857    4.5271 H         1 UNK         0.0815 
    108 H108       27.9795   29.6470    5.7999 H         1 UNK         0.0815 
    109 H109       28.7388   28.1575    5.2902 H         1 UNK         0.0815 
    110 H110       27.4440   30.4560    1.9395 H         1 UNK         0.2987 
    111 H111       26.4328   32.9813    2.8773 H         1 UNK         0.0949 
    112 H112       26.4482   31.7673    0.0596 H         1 UNK         0.0806 
    113 H113       25.1913   31.5210    1.2719 H         1 UNK         0.0806 
    114 H114       25.4593   33.1190    0.5928 H         1 UNK         0.0806 
    115 H115       29.3719   32.0709    1.1945 H         1 UNK         0.3010 
    116 H116       30.0077   34.8963    0.4796 H         1 UNK         0.0829 
    117 H117       30.3930   33.2384   -1.3185 H         1 UNK         0.0813 
    118 H118       31.9187   33.8934   -0.7461 H         1 UNK         0.0813 
    119 H119       31.4233   32.2785   -0.2617 H         1 UNK         0.0813 
    120 H120       31.4886   32.0070    2.1295 H         1 UNK         0.3038 
    121 H121       32.3107   33.4646    4.4347 H         1 UNK         0.0769 
    122 H122       34.5042   32.7615    2.3851 H         1 UNK         0.0811 
    123 H123       34.8130   33.2312    4.0503 H         1 UNK         0.0811 
    124 H124       34.1010   34.3854    2.9397 H         1 UNK         0.0811 
    125 H125       33.2423   32.0178    5.9940 H         1 UNK         0.3204 
    126 H126       32.2552   29.3809    5.9049 H         1 UNK         0.0748 
    127 H127       34.2809   30.6920    7.7992 H         1 UNK         0.0771 
    128 H128       32.5295   30.6581    8.0077 H         1 UNK         0.0771 
    129 H129       33.4582   29.1740    8.1150 H         1 UNK         0.0771 
    130 H130       35.1229   27.2368    5.1247 H         1 UNK         0.2980 
    131 H131       32.8589   27.2293    6.8746 H         1 UNK         0.0545 
    132 H132       30.0597   26.4495    4.7655 H         1 UNK         0.3459 
    133 H133       30.7301   26.1456    6.3573 H         1 UNK         0.3459 
    134 H134       34.4955   25.4264    6.9623 H         1 UNK         0.0616 
    135 H135       32.9315   24.7826    6.5907 H         1 UNK         0.0616 
    136 H136       32.1233   23.9985    4.5115 H         1 UNK         0.0634 
    137 H137       33.1382   22.5814    4.5844 H         1 UNK         0.0634 
@<TRIPOS>BOND
     1    1    2 1    
     2    1   72 1    
     3    1   73 1    
     4    1   74 1    
     5    2    3 2    
     6    2    4 am   BACKBONE|DICT|INTERRES
     7    4    5 1    
     8    4   75 1    
     9    5    6 1    
    10    5   35 1    
    11    5   76 1    
    12    6    7 1    
    13    6   77 1    
    14    6   78 1    
    15    7    8 1    
    16    8    9 1    
    17    8   79 1    
    18    8   80 1    
    19    9   10 ar   
    20    9   14 ar   
    21   10   11 ar   
    22   10   81 1    
    23   11   12 ar   
    24   11   71 1    
    25   12   13 ar   
    26   12   82 1    
    27   13   14 ar   
    28   13   15 1    
    29   14   83 1    
    30   15   16 1    
    31   15   84 1    
    32   15   85 1    
    33   16   17 1    
    34   17   18 1    
    35   17   86 1    
    36   17   87 1    
    37   18   19 1    
    38   18   37 1    
    39   18   88 1    
    40   19   20 am   BACKBONE|DICT|INTERRES
    41   19   89 1    
    42   20   21 2    
    43   20   22 1    
    44   22   23 1    
    45   22   24 1    
    46   22   90 1    
    47   23   91 1    
    48   23   92 1    
    49   23   93 1    
    50   24   25 am   BACKBONE|DICT|INTERRES
    51   24   94 1    
    52   25   26 2    
    53   25   27 1    
    54   27   28 1    
    55   27   29 1    
    56   27   95 1    
    57   28   96 1    
    58   28   97 1    
    59   28   98 1    
    60   29   30 am   BACKBONE|DICT|INTERRES
    61   29   99 1    
    62   30   31 2    
    63   30   32 1    
    64   32   33 1    
    65   32   34 1    
    66   32  100 1    
    67   33  101 1    
    68   33  102 1    
    69   33  103 1    
    70   34   35 am   BACKBONE|DICT|INTERRES
    71   34  104 1    
    72   35   36 2    
    73   37   38 2    
    74   37   39 am   BACKBONE|DICT|INTERRES
    75   39   40 1    
    76   39  105 1    
    77   40   41 1    
    78   40   42 1    
    79   40  106 1    
    80   41  107 1    
    81   41  108 1    
    82   41  109 1    
    83   42   43 2    
    84   42   44 am   BACKBONE|DICT|INTERRES
    85   44   45 1    
    86   44  110 1    
    87   45   46 1    
    88   45   47 1    
    89   45  111 1    
    90   46  112 1    
    91   46  113 1    
    92   46  114 1    
    93   47   48 2    
    94   47   49 am   BACKBONE|DICT|INTERRES
    95   49   50 1    
    96   49  115 1    
    97   50   51 1    
    98   50   52 1    
    99   50  116 1    
   100   51  117 1    
   101   51  118 1    
   102   51  119 1    
   103   52   53 2    
   104   52   54 am   BACKBONE|DICT|INTERRES
   105   54   55 1    
   106   54  120 1    
   107   55   56 1    
   108   55   57 1    
   109   55  121 1    
   110   56  122 1    
   111   56  123 1    
   112   56  124 1    
   113   57   58 2    
   114   57   59 am   BACKBONE|DICT|INTERRES
   115   59   60 1    
   116   59  125 1    
   117   60   61 1    
   118   60   62 1    
   119   60  126 1    
   120   61  127 1    
   121   61  128 1    
   122   61  129 1    
   123   62   63 2    
   124   62   64 am   BACKBONE|DICT|INTERRES
   125   64   65 1    
   126   64  130 1    
   127   65   66 1    
   128   65   69 1    
   129   65  131 1    
   130   66   67 am   BACKBONE|DICT|INTERRES
   131   66   68 2    
   132   67  132 1    
   133   67  133 1    
   134   69   70 1    
   135   69  134 1    
   136   69  135 1    
   137   70   71 1    
   138   71  136 1    
   139   71  137 1    
@<TRIPOS>SUBSTRUCTURE
     1 UNK         1 GROUP             0       ****    0 ROOT    
