@<TRIPOS>MOLECULE
3R136
137   139    1
SMALL
USER_CHARGES


@<TRIPOS>ATOM
      1 CA         33.1688   27.7226   -3.3204 C.3       0 UNK        -0.1979 
      2 C          31.9627   27.7546   -2.3937 C.2       0 UNK         0.4864 
      3 O          31.1809   28.7034   -2.4454 O.2       0 UNK        -0.5359 
      4 N          31.8071   26.7202   -1.5542 N.am      1 UNK        -0.4318 
      5 CA         30.7467   26.5972   -0.5432 C.3       1 UNK         0.0824 
      6 C6         31.0209   25.4430    0.4546 C.3       12 UNK        -0.0944 
      7 S7         32.6758   25.5385    1.2200 S.3       12 UNK        -0.2672 
      8 C8         32.7126   24.0000    2.1900 C.3       12 UNK         0.0333 
      9 C9         31.7595   24.0565    3.3743 C.ar      12 UNK        -0.0807 
     10 C10        32.1169   24.7629    4.5262 C.ar      12 UNK        -0.0894 
     11 C11        31.2462   24.8285    5.6181 C.ar      12 UNK        -0.0804 
     12 C12        30.0186   24.1639    5.5598 C.ar      12 UNK        -0.0824 
     13 C13        29.6527   23.4470    4.4155 C.ar      12 UNK        -0.0762 
     14 C14        30.5266   23.3981    3.3250 C.ar      12 UNK        -0.0782 
     15 C15        28.3194   22.7133    4.3619 C.3       12 UNK         0.0230 
     16 S16        27.0590   23.6418    3.4306 S.3       12 UNK        -0.2608 
     17 C17        26.8681   25.1375    4.4611 C.3       12 UNK        -0.0989 
     18 CA         27.5091   26.3790    3.7808 C.3       5 UNK         0.0716 
     19 N          26.8594   26.7139    2.5046 N.am      5 UNK        -0.4135 
     20 C          25.5967   27.1418    2.3398 C.2       4 UNK         0.5031 
     21 O          24.8367   27.4420    3.2607 O.2       4 UNK        -0.5229 
     22 CA         25.0901   27.2267    0.8935 C.3       4 UNK         0.0329 
     23 CB         25.4684   28.5777    0.2632 C.3       4 UNK        -0.2001 
     24 N          25.6347   26.1348    0.0866 N.am      4 UNK        -0.4303 
     25 C          25.1510   24.8832    0.0599 C.2       3 UNK         0.5044 
     26 O          24.1215   24.5453    0.6465 O.2       3 UNK        -0.5152 
     27 CA         25.9550   23.8192   -0.7249 C.3       3 UNK         0.0319 
     28 CB         25.0420   22.8343   -1.4860 C.3       3 UNK        -0.2001 
     29 N          26.9896   24.3776   -1.6082 N.am      3 UNK        -0.4354 
     30 C          26.8104   25.1908   -2.6611 C.2       2 UNK         0.4964 
     31 O          25.7052   25.4602   -3.1337 O.2       2 UNK        -0.5047 
     32 CA         28.0708   25.8508   -3.2622 C.3       2 UNK         0.0288 
     33 CB         27.7670   27.2626   -3.8080 C.3       2 UNK        -0.2113 
     34 N          29.2455   25.9175   -2.3752 N.am      2 UNK        -0.4145 
     35 C          29.3338   26.4607   -1.1474 C.2       1 UNK         0.5006 
     36 O          28.3639   26.8309   -0.4825 O.2       1 UNK        -0.5103 
     37 C          27.6472   27.5900    4.7339 C.2       5 UNK         0.5055 
     38 O          27.6797   27.4152    5.9534 O.2       5 UNK        -0.5220 
     39 N          27.7491   28.7949    4.1595 N.am      6 UNK        -0.4450 
     40 CA         27.9818   30.0535    4.8602 C.3       6 UNK         0.0367 
     41 CB         26.7176   30.5279    5.6059 C.3       6 UNK        -0.1929 
     42 C          28.4725   31.0887    3.8468 C.2       6 UNK         0.5070 
     43 O          29.6160   31.5350    3.9384 O.2       6 UNK        -0.5237 
     44 N          27.6097   31.4207    2.8750 N.am      7 UNK        -0.4739 
     45 CA         27.8693   32.3776    1.7955 C.3       7 UNK         0.0276 
     46 CB         26.5904   32.5531    0.9580 C.3       7 UNK        -0.1927 
     47 C          29.0558   31.9421    0.9182 C.2       7 UNK         0.5013 
     48 O          28.9164   30.9954    0.1430 O.2       7 UNK        -0.5193 
     49 N          30.2000   32.6181    1.1031 N.am      8 UNK        -0.4253 
     50 CA         31.5039   32.3685    0.4708 C.3       8 UNK         0.0242 
     51 CB         31.4329   32.6284   -1.0498 C.3       8 UNK        -0.2000 
     52 C          32.1194   30.9897    0.7971 C.2       8 UNK         0.4948 
     53 O          33.0242   30.5523    0.0832 O.2       8 UNK        -0.5275 
     54 N          31.6423   30.3294    1.8617 N.am      9 UNK        -0.4246 
     55 CA         32.1021   29.0051    2.2716 C.3       9 UNK         0.0261 
     56 CB         30.9947   28.3090    3.0754 C.3       9 UNK        -0.1959 
     57 C          33.4065   29.0854    3.0734 C.2       9 UNK         0.5033 
     58 O          33.5990   30.0220    3.8530 O.2       9 UNK        -0.5390 
     59 N          34.2673   28.0769    2.8955 N.am      10 UNK        -0.4215 
     60 CA         35.5862   27.9579    3.5238 C.3       10 UNK         0.0240 
     61 CB         36.4835   27.0950    2.6158 C.3       10 UNK        -0.1982 
     62 C          35.5075   27.4167    4.9661 C.2       10 UNK         0.4970 
     63 O          36.2322   26.4818    5.3126 O.2       10 UNK        -0.4916 
     64 N          34.6121   27.9924    5.7739 N.am      11 UNK        -0.4279 
     65 CA         34.3849   27.6203    7.1761 C.3       11 UNK         0.1003 
     66 C          35.4639   28.2040    8.1276 C.2       11 UNK         0.5709 
     67 N          35.6618   27.5915    9.2873 N.am      11 UNK        -0.7358 
     68 O          36.1000   29.2182    7.8442 O.2       11 UNK        -0.4999 
     69 C69        32.9519   27.9871    7.6526 C.3       12 UNK        -0.0954 
     70 S70        31.6363   27.3985    6.5332 S.3       12 UNK        -0.2268 
     71 C71        31.6441   25.6089    6.8608 C.3       12 UNK         0.0203 
     72 H72        32.8446   27.7521   -4.3603 H         1 UNK         0.0888 
     73 H73        33.8032   28.5893   -3.1358 H         1 UNK         0.0888 
     74 H74        33.7708   26.8254   -3.1772 H         1 UNK         0.0888 
     75 H75        32.4976   25.9825   -1.5448 H         1 UNK         0.3017 
     76 H76        30.7325   27.5338    0.0158 H         1 UNK         0.0873 
     77 H77        30.2769   25.4545    1.2538 H         1 UNK         0.0745 
     78 H78        30.9290   24.4748   -0.0417 H         1 UNK         0.0745 
     79 H79        32.4804   23.1535    1.5418 H         1 UNK         0.0705 
     80 H80        33.7292   23.8369    2.5512 H         1 UNK         0.0705 
     81 H81        33.0684   25.2757    4.5689 H         1 UNK         0.1334 
     82 H82        29.3483   24.2055    6.4072 H         1 UNK         0.1417 
     83 H83        30.2437   22.8476    2.4380 H         1 UNK         0.1562 
     84 H84        27.9494   22.5101    5.3681 H         1 UNK         0.0748 
     85 H85        28.4587   21.7397    3.8897 H         1 UNK         0.0748 
     86 H86        27.3037   24.9488    5.4423 H         1 UNK         0.0940 
     87 H87        25.8053   25.3029    4.6443 H         1 UNK         0.0940 
     88 H88        28.5378   26.1154    3.5281 H         1 UNK         0.0703 
     89 H89        27.3978   26.5163    1.6715 H         1 UNK         0.3081 
     90 H90        24.0007   27.1497    0.9082 H         1 UNK         0.0719 
     91 H91        25.0294   29.4031    0.8248 H         1 UNK         0.0809 
     92 H92        26.5480   28.7345    0.2421 H         1 UNK         0.0809 
     93 H93        25.1020   28.6520   -0.7608 H         1 UNK         0.0809 
     94 H94        26.5103   26.3261   -0.3924 H         1 UNK         0.2990 
     95 H95        26.4924   23.2455    0.0318 H         1 UNK         0.0690 
     96 H96        25.6251   22.0873   -2.0244 H         1 UNK         0.0788 
     97 H97        24.4026   23.3454   -2.2061 H         1 UNK         0.0788 
     98 H98        24.3875   22.2973   -0.7983 H         1 UNK         0.0788 
     99 H99        27.9414   24.2220   -1.3079 H         1 UNK         0.2993 
    100 H100       28.3593   25.2228   -4.1065 H         1 UNK         0.0949 
    101 H101       27.4147   27.9292   -3.0195 H         1 UNK         0.0767 
    102 H102       28.6534   27.7145   -4.2537 H         1 UNK         0.0767 
    103 H103       26.9981   27.2341   -4.5812 H         1 UNK         0.0767 
    104 H104       30.1126   25.6110   -2.7940 H         1 UNK         0.3013 
    105 H105       27.7357   28.8482    3.1505 H         1 UNK         0.3121 
    106 H106       28.7813   29.9031    5.5895 H         1 UNK         0.0774 
    107 H107       25.8494   30.5826    4.9486 H         1 UNK         0.0815 
    108 H108       26.4670   29.8556    6.4264 H         1 UNK         0.0815 
    109 H109       26.8673   31.5181    6.0383 H         1 UNK         0.0815 
    110 H110       26.6926   30.9991    2.8830 H         1 UNK         0.2987 
    111 H111       28.1037   33.3413    2.2531 H         1 UNK         0.0949 
    112 H112       25.7644   32.9253    1.5644 H         1 UNK         0.0806 
    113 H113       26.7492   33.2719    0.1530 H         1 UNK         0.0806 
    114 H114       26.2748   31.6163    0.4975 H         1 UNK         0.0806 
    115 H115       30.2029   33.3406    1.8107 H         1 UNK         0.3010 
    116 H116       32.1880   33.1038    0.8970 H         1 UNK         0.0829 
    117 H117       30.8353   31.8718   -1.5600 H         1 UNK         0.0813 
    118 H118       31.0000   33.6045   -1.2684 H         1 UNK         0.0813 
    119 H119       32.4270   32.6090   -1.4979 H         1 UNK         0.0813 
    120 H120       30.9600   30.7845    2.4579 H         1 UNK         0.3038 
    121 H121       32.2963   28.4209    1.3720 H         1 UNK         0.0769 
    122 H122       30.0856   28.2063    2.4839 H         1 UNK         0.0811 
    123 H123       30.7518   28.8619    3.9832 H         1 UNK         0.0811 
    124 H124       31.2977   27.3062    3.3776 H         1 UNK         0.0811 
    125 H125       33.9955   27.3182    2.2830 H         1 UNK         0.3204 
    126 H126       36.0351   28.9517    3.5843 H         1 UNK         0.0748 
    127 H127       36.1009   26.0778    2.5203 H         1 UNK         0.0771 
    128 H128       36.5597   27.5197    1.6145 H         1 UNK         0.0771 
    129 H129       37.4972   27.0282    3.0132 H         1 UNK         0.0771 
    130 H130       34.0797   28.7783    5.4182 H         1 UNK         0.2980 
    131 H131       34.4854   26.5359    7.2366 H         1 UNK         0.0545 
    132 H132       36.3496   27.9620    9.9244 H         1 UNK         0.3459 
    133 H133       35.1418   26.7652    9.5382 H         1 UNK         0.3459 
    134 H134       32.8482   29.0705    7.7357 H         1 UNK         0.0616 
    135 H135       32.7617   27.5849    8.6492 H         1 UNK         0.0616 
    136 H136       30.9687   25.3994    7.6914 H         1 UNK         0.0634 
    137 H137       32.6316   25.2762    7.1781 H         1 UNK         0.0634 
@<TRIPOS>BOND
     1    1    2 1    
     2    1   72 1    
     3    1   73 1    
     4    1   74 1    
     5    2    3 2    
     6    2    4 am   BACKBONE|DICT|INTERRES
     7    4    5 1    
     8    4   75 1    
     9    5    6 1    
    10    5   35 1    
    11    5   76 1    
    12    6    7 1    
    13    6   77 1    
    14    6   78 1    
    15    7    8 1    
    16    8    9 1    
    17    8   79 1    
    18    8   80 1    
    19    9   10 ar   
    20    9   14 ar   
    21   10   11 ar   
    22   10   81 1    
    23   11   12 ar   
    24   11   71 1    
    25   12   13 ar   
    26   12   82 1    
    27   13   14 ar   
    28   13   15 1    
    29   14   83 1    
    30   15   16 1    
    31   15   84 1    
    32   15   85 1    
    33   16   17 1    
    34   17   18 1    
    35   17   86 1    
    36   17   87 1    
    37   18   19 1    
    38   18   37 1    
    39   18   88 1    
    40   19   20 am   BACKBONE|DICT|INTERRES
    41   19   89 1    
    42   20   21 2    
    43   20   22 1    
    44   22   23 1    
    45   22   24 1    
    46   22   90 1    
    47   23   91 1    
    48   23   92 1    
    49   23   93 1    
    50   24   25 am   BACKBONE|DICT|INTERRES
    51   24   94 1    
    52   25   26 2    
    53   25   27 1    
    54   27   28 1    
    55   27   29 1    
    56   27   95 1    
    57   28   96 1    
    58   28   97 1    
    59   28   98 1    
    60   29   30 am   BACKBONE|DICT|INTERRES
    61   29   99 1    
    62   30   31 2    
    63   30   32 1    
    64   32   33 1    
    65   32   34 1    
    66   32  100 1    
    67   33  101 1    
    68   33  102 1    
    69   33  103 1    
    70   34   35 am   BACKBONE|DICT|INTERRES
    71   34  104 1    
    72   35   36 2    
    73   37   38 2    
    74   37   39 am   BACKBONE|DICT|INTERRES
    75   39   40 1    
    76   39  105 1    
    77   40   41 1    
    78   40   42 1    
    79   40  106 1    
    80   41  107 1    
    81   41  108 1    
    82   41  109 1    
    83   42   43 2    
    84   42   44 am   BACKBONE|DICT|INTERRES
    85   44   45 1    
    86   44  110 1    
    87   45   46 1    
    88   45   47 1    
    89   45  111 1    
    90   46  112 1    
    91   46  113 1    
    92   46  114 1    
    93   47   48 2    
    94   47   49 am   BACKBONE|DICT|INTERRES
    95   49   50 1    
    96   49  115 1    
    97   50   51 1    
    98   50   52 1    
    99   50  116 1    
   100   51  117 1    
   101   51  118 1    
   102   51  119 1    
   103   52   53 2    
   104   52   54 am   BACKBONE|DICT|INTERRES
   105   54   55 1    
   106   54  120 1    
   107   55   56 1    
   108   55   57 1    
   109   55  121 1    
   110   56  122 1    
   111   56  123 1    
   112   56  124 1    
   113   57   58 2    
   114   57   59 am   BACKBONE|DICT|INTERRES
   115   59   60 1    
   116   59  125 1    
   117   60   61 1    
   118   60   62 1    
   119   60  126 1    
   120   61  127 1    
   121   61  128 1    
   122   61  129 1    
   123   62   63 2    
   124   62   64 am   BACKBONE|DICT|INTERRES
   125   64   65 1    
   126   64  130 1    
   127   65   66 1    
   128   65   69 1    
   129   65  131 1    
   130   66   67 am   BACKBONE|DICT|INTERRES
   131   66   68 2    
   132   67  132 1    
   133   67  133 1    
   134   69   70 1    
   135   69  134 1    
   136   69  135 1    
   137   70   71 1    
   138   71  136 1    
   139   71  137 1    
@<TRIPOS>SUBSTRUCTURE
     1 UNK         1 GROUP             0       ****    0 ROOT    
