@<TRIPOS>MOLECULE
3R136
137   139    1
SMALL
USER_CHARGES


@<TRIPOS>ATOM
      1 CA         32.0514   22.3188   -4.0320 C.3       0 UNK        -0.1979 
      2 C          31.4510   23.5675   -3.4030 C.2       0 UNK         0.4864 
      3 O          31.4089   24.6172   -4.0469 O.2       0 UNK        -0.5359 
      4 N          30.9963   23.4634   -2.1484 N.am      1 UNK        -0.4318 
      5 CA         30.3210   24.5319   -1.4075 C.3       1 UNK         0.0824 
      6 C6         30.3591   24.2969    0.1250 C.3       12 UNK        -0.0944 
      7 S7         29.9059   22.6176    0.6723 S.3       12 UNK        -0.2672 
      8 C8         31.1770   22.3229    1.9445 C.3       12 UNK         0.0333 
      9 C9         31.0320   23.2642    3.1351 C.ar      12 UNK        -0.0807 
     10 C10        32.0366   24.1881    3.4423 C.ar      12 UNK        -0.0894 
     11 C11        31.9259   25.0076    4.5703 C.ar      12 UNK        -0.0804 
     12 C12        30.7826   24.9222    5.3722 C.ar      12 UNK        -0.0824 
     13 C13        29.7652   24.0072    5.0762 C.ar      12 UNK        -0.0762 
     14 C14        29.9073   23.1743    3.9595 C.ar      12 UNK        -0.0782 
     15 C15        28.5658   23.8838    6.0182 C.3       12 UNK         0.0230 
     16 S16        27.0030   23.4052    5.1988 S.3       12 UNK        -0.2608 
     17 C17        26.2248   25.0136    4.8367 C.3       12 UNK        -0.0989 
     18 CA         26.7138   25.6452    3.4997 C.3       5 UNK         0.0716 
     19 N          25.6469   26.2734    2.7186 N.am      5 UNK        -0.4135 
     20 C          24.8111   27.2457    3.1163 C.2       4 UNK         0.5031 
     21 O          24.7834   27.6981    4.2613 O.2       4 UNK        -0.5229 
     22 CA         23.8402   27.8345    2.0684 C.3       4 UNK         0.0329 
     23 CB         24.1971   29.3019    1.7743 C.3       4 UNK        -0.2001 
     24 N          23.8129   27.0996    0.8012 N.am      4 UNK        -0.4303 
     25 C          23.3008   25.8742    0.6199 C.2       3 UNK         0.5044 
     26 O          22.6621   25.2672    1.4796 O.2       3 UNK        -0.5152 
     27 CA         23.5872   25.1891   -0.7321 C.3       3 UNK         0.0319 
     28 CB         22.3422   25.2408   -1.6324 C.3       3 UNK        -0.2001 
     29 N          24.7376   25.7309   -1.4720 N.am      3 UNK        -0.4354 
     30 C          26.0044   25.7787   -1.0333 C.2       2 UNK         0.4964 
     31 O          26.3585   25.4173    0.0925 O.2       2 UNK        -0.5047 
     32 CA         27.0240   26.4213   -1.9861 C.3       2 UNK         0.0288 
     33 CB         26.9497   27.9544   -1.8837 C.3       2 UNK        -0.2113 
     34 N          28.3892   25.9993   -1.6765 N.am      2 UNK        -0.4145 
     35 C          28.8869   24.7793   -1.9181 C.2       1 UNK         0.5006 
     36 O          28.2648   23.8850   -2.5001 O.2       1 UNK        -0.5103 
     37 C          27.8833   26.6364    3.6528 C.2       5 UNK         0.5055 
     38 O          28.2194   27.0455    4.7661 O.2       5 UNK        -0.5220 
     39 N          28.4541   27.0426    2.5121 N.am      6 UNK        -0.4450 
     40 CA         29.5938   27.9479    2.4491 C.3       6 UNK         0.0367 
     41 CB         29.1166   29.4109    2.4849 C.3       6 UNK        -0.1929 
     42 C          30.3934   27.6635    1.1775 C.2       6 UNK         0.5070 
     43 O          29.8265   27.7072    0.0839 O.2       6 UNK        -0.5237 
     44 N          31.6918   27.3872    1.3360 N.am      7 UNK        -0.4739 
     45 CA         32.6778   27.4047    0.2501 C.3       7 UNK         0.0276 
     46 CB         33.8727   26.5142    0.6272 C.3       7 UNK        -0.1927 
     47 C          33.1414   28.8419   -0.0432 C.2       7 UNK         0.5013 
     48 O          33.4278   29.1750   -1.1931 O.2       7 UNK        -0.5193 
     49 N          33.1692   29.6654    1.0079 N.am      8 UNK        -0.4253 
     50 CA         33.3853   31.1030    1.0125 C.3       8 UNK         0.0242 
     51 CB         34.8926   31.4130    1.0071 C.3       8 UNK        -0.2000 
     52 C          32.7182   31.6188    2.2907 C.2       8 UNK         0.4948 
     53 O          32.5789   30.8503    3.2468 O.2       8 UNK        -0.5275 
     54 N          32.3476   32.9055    2.3166 N.am      9 UNK        -0.4246 
     55 CA         31.6682   33.5508    3.4513 C.3       9 UNK         0.0261 
     56 CB         31.3396   35.0079    3.0878 C.3       9 UNK        -0.1959 
     57 C          32.4488   33.4898    4.7795 C.2       9 UNK         0.5033 
     58 O          31.8332   33.4720    5.8461 O.2       9 UNK        -0.5390 
     59 N          33.7834   33.4273    4.6874 N.am      10 UNK        -0.4215 
     60 CA         34.6994   33.2656    5.8147 C.3       10 UNK         0.0240 
     61 CB         36.1235   33.6151    5.3507 C.3       10 UNK        -0.1982 
     62 C          34.6753   31.8637    6.4547 C.2       10 UNK         0.4970 
     63 O          35.1162   31.7443    7.5990 O.2       10 UNK        -0.4916 
     64 N          34.1989   30.8337    5.7348 N.am      11 UNK        -0.4279 
     65 CA         34.1486   29.4472    6.2331 C.3       11 UNK         0.1003 
     66 C          32.9560   29.1495    7.1915 C.2       11 UNK         0.5709 
     67 N          31.9766   30.0367    7.3298 N.am      11 UNK        -0.7358 
     68 O          32.9373   28.1090    7.8447 O.2       11 UNK        -0.4999 
     69 C69        34.3692   28.4058    5.0896 C.3       12 UNK        -0.0954 
     70 S70        32.8873   27.6198    4.3577 S.3       12 UNK        -0.2268 
     71 C71        33.0771   25.9195    4.9751 C.3       12 UNK         0.0203 
     72 H72        32.0375   21.4707   -3.3475 H         1 UNK         0.0888 
     73 H73        33.0855   22.5040   -4.3212 H         1 UNK         0.0888 
     74 H74        31.4912   22.0426   -4.9250 H         1 UNK         0.0888 
     75 H75        31.0190   22.5703   -1.6768 H         1 UNK         0.3017 
     76 H76        30.8719   25.4521   -1.6078 H         1 UNK         0.0873 
     77 H77        29.7057   24.9920    0.6513 H         1 UNK         0.0745 
     78 H78        31.3650   24.5197    0.4804 H         1 UNK         0.0745 
     79 H79        31.0919   21.2930    2.2938 H         1 UNK         0.0705 
     80 H80        32.1664   22.4108    1.4927 H         1 UNK         0.0705 
     81 H81        32.9232   24.2439    2.8260 H         1 UNK         0.1334 
     82 H82        30.6996   25.5531    6.2470 H         1 UNK         0.1417 
     83 H83        29.1478   22.4402    3.7285 H         1 UNK         0.1562 
     84 H84        28.4138   24.8137    6.5686 H         1 UNK         0.0748 
     85 H85        28.8038   23.1243    6.7638 H         1 UNK         0.0748 
     86 H86        26.3227   25.6892    5.6883 H         1 UNK         0.0940 
     87 H87        25.1553   24.8073    4.7720 H         1 UNK         0.0940 
     88 H88        27.0817   24.8395    2.8613 H         1 UNK         0.0703 
     89 H89        25.6246   25.9888    1.7430 H         1 UNK         0.3081 
     90 H90        22.8383   27.8031    2.5018 H         1 UNK         0.0719 
     91 H91        24.1822   29.8991    2.6872 H         1 UNK         0.0809 
     92 H92        25.1938   29.3961    1.3408 H         1 UNK         0.0809 
     93 H93        23.4846   29.7543    1.0841 H         1 UNK         0.0809 
     94 H94        24.3045   27.5199    0.0265 H         1 UNK         0.2990 
     95 H95        23.8082   24.1419   -0.5151 H         1 UNK         0.0690 
     96 H96        22.4892   24.6681   -2.5484 H         1 UNK         0.0788 
     97 H97        22.0880   26.2642   -1.9114 H         1 UNK         0.0788 
     98 H98        21.4744   24.8165   -1.1251 H         1 UNK         0.0788 
     99 H99        24.5402   26.0774   -2.4004 H         1 UNK         0.2993 
    100 H100       26.7914   26.1170   -3.0090 H         1 UNK         0.0949 
    101 H101       27.1646   28.3024   -0.8720 H         1 UNK         0.0767 
    102 H102       27.6642   28.4300   -2.5561 H         1 UNK         0.0767 
    103 H103       25.9595   28.3234   -2.1543 H         1 UNK         0.0767 
    104 H104       28.9500   26.6617   -1.1425 H         1 UNK         0.3013 
    105 H105       28.1297   26.6782    1.6253 H         1 UNK         0.3121 
    106 H106       30.2339   27.7702    3.3144 H         1 UNK         0.0774 
    107 H107       28.4494   29.6378    1.6525 H         1 UNK         0.0815 
    108 H108       28.5856   29.6325    3.4107 H         1 UNK         0.0815 
    109 H109       29.9616   30.0976    2.4259 H         1 UNK         0.0815 
    110 H110       32.0587   27.3199    2.2781 H         1 UNK         0.2987 
    111 H111       32.2281   27.0134   -0.6630 H         1 UNK         0.0949 
    112 H112       33.5685   25.4779    0.7685 H         1 UNK         0.0806 
    113 H113       34.6274   26.5227   -0.1605 H         1 UNK         0.0806 
    114 H114       34.3563   26.8503    1.5454 H         1 UNK         0.0806 
    115 H115       32.8905   29.3151    1.9174 H         1 UNK         0.3010 
    116 H116       32.8990   31.5496    0.1426 H         1 UNK         0.0829 
    117 H117       35.0733   32.4884    1.0146 H         1 UNK         0.0813 
    118 H118       35.3760   31.0112    0.1164 H         1 UNK         0.0813 
    119 H119       35.3940   30.9887    1.8782 H         1 UNK         0.0813 
    120 H120       32.5048   33.4768    1.4980 H         1 UNK         0.3038 
    121 H121       30.7278   33.0185    3.6103 H         1 UNK         0.0769 
    122 H122       30.6952   35.0637    2.2103 H         1 UNK         0.0811 
    123 H123       32.2409   35.5867    2.8819 H         1 UNK         0.0811 
    124 H124       30.8133   35.5046    3.9044 H         1 UNK         0.0811 
    125 H125       34.1949   33.4510    3.7661 H         1 UNK         0.3204 
    126 H126       34.4091   33.9790    6.5891 H         1 UNK         0.0748 
    127 H127       36.8331   33.5417    6.1763 H         1 UNK         0.0771 
    128 H128       36.4689   32.9428    4.5641 H         1 UNK         0.0771 
    129 H129       36.1787   34.6355    4.9705 H         1 UNK         0.0771 
    130 H130       33.7754   30.9922    4.8260 H         1 UNK         0.2980 
    131 H131       35.0245   29.3325    6.8751 H         1 UNK         0.0545 
    132 H132       31.2162   29.8379    7.9597 H         1 UNK         0.3459 
    133 H133       31.9880   30.8969    6.8036 H         1 UNK         0.3459 
    134 H134       35.0145   27.6114    5.4677 H         1 UNK         0.0616 
    135 H135       34.9395   28.8549    4.2749 H         1 UNK         0.0616 
    136 H136       34.0203   25.5120    4.6076 H         1 UNK         0.0634 
    137 H137       33.1587   25.9420    6.0629 H         1 UNK         0.0634 
@<TRIPOS>BOND
     1    1    2 1    
     2    1   72 1    
     3    1   73 1    
     4    1   74 1    
     5    2    3 2    
     6    2    4 am   BACKBONE|DICT|INTERRES
     7    4    5 1    
     8    4   75 1    
     9    5    6 1    
    10    5   35 1    
    11    5   76 1    
    12    6    7 1    
    13    6   77 1    
    14    6   78 1    
    15    7    8 1    
    16    8    9 1    
    17    8   79 1    
    18    8   80 1    
    19    9   10 ar   
    20    9   14 ar   
    21   10   11 ar   
    22   10   81 1    
    23   11   12 ar   
    24   11   71 1    
    25   12   13 ar   
    26   12   82 1    
    27   13   14 ar   
    28   13   15 1    
    29   14   83 1    
    30   15   16 1    
    31   15   84 1    
    32   15   85 1    
    33   16   17 1    
    34   17   18 1    
    35   17   86 1    
    36   17   87 1    
    37   18   19 1    
    38   18   37 1    
    39   18   88 1    
    40   19   20 am   BACKBONE|DICT|INTERRES
    41   19   89 1    
    42   20   21 2    
    43   20   22 1    
    44   22   23 1    
    45   22   24 1    
    46   22   90 1    
    47   23   91 1    
    48   23   92 1    
    49   23   93 1    
    50   24   25 am   BACKBONE|DICT|INTERRES
    51   24   94 1    
    52   25   26 2    
    53   25   27 1    
    54   27   28 1    
    55   27   29 1    
    56   27   95 1    
    57   28   96 1    
    58   28   97 1    
    59   28   98 1    
    60   29   30 am   BACKBONE|DICT|INTERRES
    61   29   99 1    
    62   30   31 2    
    63   30   32 1    
    64   32   33 1    
    65   32   34 1    
    66   32  100 1    
    67   33  101 1    
    68   33  102 1    
    69   33  103 1    
    70   34   35 am   BACKBONE|DICT|INTERRES
    71   34  104 1    
    72   35   36 2    
    73   37   38 2    
    74   37   39 am   BACKBONE|DICT|INTERRES
    75   39   40 1    
    76   39  105 1    
    77   40   41 1    
    78   40   42 1    
    79   40  106 1    
    80   41  107 1    
    81   41  108 1    
    82   41  109 1    
    83   42   43 2    
    84   42   44 am   BACKBONE|DICT|INTERRES
    85   44   45 1    
    86   44  110 1    
    87   45   46 1    
    88   45   47 1    
    89   45  111 1    
    90   46  112 1    
    91   46  113 1    
    92   46  114 1    
    93   47   48 2    
    94   47   49 am   BACKBONE|DICT|INTERRES
    95   49   50 1    
    96   49  115 1    
    97   50   51 1    
    98   50   52 1    
    99   50  116 1    
   100   51  117 1    
   101   51  118 1    
   102   51  119 1    
   103   52   53 2    
   104   52   54 am   BACKBONE|DICT|INTERRES
   105   54   55 1    
   106   54  120 1    
   107   55   56 1    
   108   55   57 1    
   109   55  121 1    
   110   56  122 1    
   111   56  123 1    
   112   56  124 1    
   113   57   58 2    
   114   57   59 am   BACKBONE|DICT|INTERRES
   115   59   60 1    
   116   59  125 1    
   117   60   61 1    
   118   60   62 1    
   119   60  126 1    
   120   61  127 1    
   121   61  128 1    
   122   61  129 1    
   123   62   63 2    
   124   62   64 am   BACKBONE|DICT|INTERRES
   125   64   65 1    
   126   64  130 1    
   127   65   66 1    
   128   65   69 1    
   129   65  131 1    
   130   66   67 am   BACKBONE|DICT|INTERRES
   131   66   68 2    
   132   67  132 1    
   133   67  133 1    
   134   69   70 1    
   135   69  134 1    
   136   69  135 1    
   137   70   71 1    
   138   71  136 1    
   139   71  137 1    
@<TRIPOS>SUBSTRUCTURE
     1 UNK         1 GROUP             0       ****    0 ROOT    
