@<TRIPOS>MOLECULE
3R136
137   139    1
SMALL
USER_CHARGES


@<TRIPOS>ATOM
      1 CA         29.4966   25.1795    3.0374 C.3       0 UNK        -0.1979 
      2 C          29.1454   23.7066    3.1073 C.2       0 UNK         0.4864 
      3 O          28.3355   23.3098    3.9449 O.2       0 UNK        -0.5359 
      4 N          29.7242   22.8896    2.2179 N.am      1 UNK        -0.4318 
      5 CA         29.4633   21.4475    2.1239 C.3       1 UNK         0.0824 
      6 C6         30.5351   20.7173    1.2798 C.3       12 UNK        -0.0944 
      7 S7         30.7162   21.3479   -0.4265 S.3       12 UNK        -0.2672 
      8 C8         32.4184   21.9986   -0.4242 C.3       12 UNK         0.0333 
      9 C9         32.4657   23.4762   -0.0618 C.ar      12 UNK        -0.0807 
     10 C10        32.8048   23.8931    1.2306 C.ar      12 UNK        -0.0894 
     11 C11        32.8937   25.2554    1.5466 C.ar      12 UNK        -0.0804 
     12 C12        32.6415   26.1979    0.5403 C.ar      12 UNK        -0.0824 
     13 C13        32.2800   25.7944   -0.7472 C.ar      12 UNK        -0.0762 
     14 C14        32.1985   24.4331   -1.0439 C.ar      12 UNK        -0.0782 
     15 C15        31.9700   26.8320   -1.8163 C.3       12 UNK         0.0230 
     16 S16        30.1783   27.0123   -2.0794 S.3       12 UNK        -0.2608 
     17 C17        29.6093   27.4770   -0.4097 C.3       12 UNK        -0.0989 
     18 CA         28.3308   28.3547   -0.4469 C.3       5 UNK         0.0716 
     19 N          27.5033   28.1891    0.7445 N.am      5 UNK        -0.4135 
     20 C          26.7556   27.1145    1.0073 C.2       4 UNK         0.5031 
     21 O          26.7228   26.1082    0.2915 O.2       4 UNK        -0.5229 
     22 CA         25.8870   27.1630    2.2698 C.3       4 UNK         0.0329 
     23 CB         24.5978   27.9695    2.0244 C.3       4 UNK        -0.2001 
     24 N          25.5667   25.7850    2.6213 N.am      4 UNK        -0.4303 
     25 C          25.1188   25.3256    3.7926 C.2       3 UNK         0.5044 
     26 O          24.8393   26.0540    4.7459 O.2       3 UNK        -0.5152 
     27 CA         24.9985   23.7967    3.9584 C.3       3 UNK         0.0319 
     28 CB         23.5597   23.3611    4.3064 C.3       3 UNK        -0.2001 
     29 N          25.5671   23.0167    2.8455 N.am      3 UNK        -0.4354 
     30 C          25.0661   22.8003    1.6171 C.2       2 UNK         0.4964 
     31 O          23.9690   23.2188    1.2479 O.2       2 UNK        -0.5047 
     32 CA         25.9478   22.0214    0.6153 C.3       2 UNK         0.0288 
     33 CB         25.8032   22.5679   -0.8176 C.3       2 UNK        -0.2113 
     34 N          27.3654   22.0584    0.9833 N.am      2 UNK        -0.4145 
     35 C          28.0208   21.1140    1.6741 C.2       1 UNK         0.5006 
     36 O          27.5187   20.0383    2.0036 O.2       1 UNK        -0.5103 
     37 C          28.6642   29.8464   -0.6059 C.2       5 UNK         0.5055 
     38 O          28.5959   30.5997    0.3698 O.2       5 UNK        -0.5220 
     39 N          29.0446   30.2391   -1.8268 N.am      6 UNK        -0.4450 
     40 CA         29.5319   31.5751   -2.1670 C.3       6 UNK         0.0367 
     41 CB         29.1868   31.8745   -3.6379 C.3       6 UNK        -0.1929 
     42 C          31.0426   31.6537   -1.8877 C.2       6 UNK         0.5070 
     43 O          31.8492   31.5912   -2.8174 O.2       6 UNK        -0.5237 
     44 N          31.3966   31.7431   -0.6033 N.am      7 UNK        -0.4739 
     45 CA         32.7674   31.8061   -0.1000 C.3       7 UNK         0.0276 
     46 CB         33.3389   30.3779    0.0345 C.3       7 UNK        -0.1927 
     47 C          32.7946   32.6121    1.2098 C.2       7 UNK         0.5013 
     48 O          31.8911   33.4189    1.4478 O.2       7 UNK        -0.5193 
     49 N          33.8365   32.4008    2.0251 N.am      8 UNK        -0.4253 
     50 CA         34.0197   33.0105    3.3453 C.3       8 UNK         0.0242 
     51 CB         35.4198   32.6427    3.8662 C.3       8 UNK        -0.2000 
     52 C          32.9451   32.5676    4.3539 C.2       8 UNK         0.4948 
     53 O          32.3409   31.5068    4.1826 O.2       8 UNK        -0.5275 
     54 N          32.7700   33.3642    5.4189 N.am      9 UNK        -0.4246 
     55 CA         31.7660   33.1820    6.4782 C.3       9 UNK         0.0261 
     56 CB         31.9038   34.3143    7.5088 C.3       9 UNK        -0.1959 
     57 C          31.7912   31.8120    7.1827 C.2       9 UNK         0.5033 
     58 O          30.7416   31.3505    7.6328 O.2       9 UNK        -0.5390 
     59 N          32.9636   31.1622    7.2203 N.am      10 UNK        -0.4215 
     60 CA         33.1527   29.7860    7.6916 C.3       10 UNK         0.0240 
     61 CB         34.6541   29.4550    7.6870 C.3       10 UNK        -0.1982 
     62 C          32.3696   28.7331    6.8803 C.2       10 UNK         0.4970 
     63 O          32.0427   27.6813    7.4311 O.2       10 UNK        -0.4916 
     64 N          32.0724   29.0369    5.6106 N.am      11 UNK        -0.4279 
     65 CA         31.2273   28.2365    4.7151 C.3       11 UNK         0.1003 
     66 C          29.7575   28.7536    4.6551 C.2       11 UNK         0.5709 
     67 N          29.3307   29.6801    5.5067 N.am      11 UNK        -0.7358 
     68 O          28.9759   28.2979    3.8250 O.2       11 UNK        -0.4999 
     69 C69        31.8519   28.1154    3.2985 C.3       12 UNK        -0.0954 
     70 S70        33.5459   27.4278    3.3037 S.3       12 UNK        -0.2268 
     71 C71        33.2581   25.6482    2.9835 C.3       12 UNK         0.0203 
     72 H72        28.5877   25.7765    2.9904 H         1 UNK         0.0888 
     73 H73        30.0464   25.4702    3.9303 H         1 UNK         0.0888 
     74 H74        30.1012   25.4126    2.1627 H         1 UNK         0.0888 
     75 H75        30.3794   23.2571    1.5404 H         1 UNK         0.3017 
     76 H76        29.5462   21.0521    3.1391 H         1 UNK         0.0873 
     77 H77        30.3135   19.6495    1.2261 H         1 UNK         0.0745 
     78 H78        31.4943   20.7821    1.7949 H         1 UNK         0.0745 
     79 H79        33.0547   21.4126    0.2404 H         1 UNK         0.0705 
     80 H80        32.8364   21.8638   -1.4230 H         1 UNK         0.0705 
     81 H81        33.0108   23.1533    1.9927 H         1 UNK         0.1334 
     82 H82        32.7115   27.2548    0.7469 H         1 UNK         0.1417 
     83 H83        31.9241   24.1182   -2.0419 H         1 UNK         0.1562 
     84 H84        32.4400   26.5413   -2.7569 H         1 UNK         0.0748 
     85 H85        32.3928   27.8011   -1.5519 H         1 UNK         0.0748 
     86 H86        30.4079   27.9703    0.1476 H         1 UNK         0.0940 
     87 H87        29.4207   26.5404    0.1157 H         1 UNK         0.0940 
     88 H88        27.7125   28.0659   -1.3003 H         1 UNK         0.0703 
     89 H89        27.5016   28.9907    1.3644 H         1 UNK         0.3081 
     90 H90        26.4622   27.6137    3.0809 H         1 UNK         0.0719 
     91 H91        24.8254   28.9974    1.7395 H         1 UNK         0.0809 
     92 H92        23.9979   27.5326    1.2249 H         1 UNK         0.0809 
     93 H93        23.9782   28.0147    2.9201 H         1 UNK         0.0809 
     94 H94        25.7745   25.1261    1.8808 H         1 UNK         0.2990 
     95 H95        25.6222   23.5500    4.8189 H         1 UNK         0.0690 
     96 H96        23.4894   22.2805    4.4306 H         1 UNK         0.0788 
     97 H97        22.8439   23.6615    3.5411 H         1 UNK         0.0788 
     98 H98        23.2341   23.8162    5.2426 H         1 UNK         0.0788 
     99 H99        26.5035   22.6766    3.0347 H         1 UNK         0.2993 
    100 H100       25.5920   20.9888    0.6188 H         1 UNK         0.0949 
    101 H101       26.4271   22.0121   -1.5180 H         1 UNK         0.0767 
    102 H102       24.7742   22.4852   -1.1702 H         1 UNK         0.0767 
    103 H103       26.0863   23.6197   -0.8783 H         1 UNK         0.0767 
    104 H104       27.8649   22.9058    0.7535 H         1 UNK         0.3013 
    105 H105       29.1292   29.5367   -2.5490 H         1 UNK         0.3121 
    106 H106       29.0318   32.3228   -1.5471 H         1 UNK         0.0774 
    107 H107       29.5474   32.8622   -3.9282 H         1 UNK         0.0815 
    108 H108       29.6365   31.1502   -4.3183 H         1 UNK         0.0815 
    109 H109       28.1091   31.8629   -3.8015 H         1 UNK         0.0815 
    110 H110       30.6719   31.8201    0.1017 H         1 UNK         0.2987 
    111 H111       33.3810   32.3622   -0.8124 H         1 UNK         0.0949 
    112 H112       32.7768   29.7874    0.7573 H         1 UNK         0.0806 
    113 H113       33.3062   29.8557   -0.9208 H         1 UNK         0.0806 
    114 H114       34.3835   30.3821    0.3461 H         1 UNK         0.0806 
    115 H115       34.5142   31.7022    1.7595 H         1 UNK         0.3010 
    116 H116       33.9558   34.0943    3.2263 H         1 UNK         0.0829 
    117 H117       36.1989   32.9735    3.1789 H         1 UNK         0.0813 
    118 H118       35.6219   33.1156    4.8281 H         1 UNK         0.0813 
    119 H119       35.5287   31.5658    4.0035 H         1 UNK         0.0813 
    120 H120       33.3313   34.2019    5.4832 H         1 UNK         0.3038 
    121 H121       30.7868   33.2724    6.0033 H         1 UNK         0.0769 
    122 H122       32.8828   34.3063    7.9896 H         1 UNK         0.0811 
    123 H123       31.1539   34.2200    8.2958 H         1 UNK         0.0811 
    124 H124       31.7624   35.2921    7.0479 H         1 UNK         0.0811 
    125 H125       33.7698   31.6217    6.8236 H         1 UNK         0.3204 
    126 H126       32.7919   29.7376    8.7212 H         1 UNK         0.0748 
    127 H127       34.8323   28.4461    8.0621 H         1 UNK         0.0771 
    128 H128       35.0755   29.5074    6.6819 H         1 UNK         0.0771 
    129 H129       35.2149   30.1389    8.3245 H         1 UNK         0.0771 
    130 H130       32.3386   29.9434    5.2340 H         1 UNK         0.2980 
    131 H131       31.1548   27.2249    5.1156 H         1 UNK         0.0545 
    132 H132       29.9439   30.0788    6.2070 H         1 UNK         0.3459 
    133 H133       28.3749   29.9905    5.4453 H         1 UNK         0.3459 
    134 H134       31.2238   27.5028    2.6522 H         1 UNK         0.0616 
    135 H135       31.8932   29.0997    2.8302 H         1 UNK         0.0616 
    136 H136       32.4833   25.2911    3.6622 H         1 UNK         0.0634 
    137 H137       34.1711   25.1188    3.2597 H         1 UNK         0.0634 
@<TRIPOS>BOND
     1    1    2 1    
     2    1   72 1    
     3    1   73 1    
     4    1   74 1    
     5    2    3 2    
     6    2    4 am   BACKBONE|DICT|INTERRES
     7    4    5 1    
     8    4   75 1    
     9    5    6 1    
    10    5   35 1    
    11    5   76 1    
    12    6    7 1    
    13    6   77 1    
    14    6   78 1    
    15    7    8 1    
    16    8    9 1    
    17    8   79 1    
    18    8   80 1    
    19    9   10 ar   
    20    9   14 ar   
    21   10   11 ar   
    22   10   81 1    
    23   11   12 ar   
    24   11   71 1    
    25   12   13 ar   
    26   12   82 1    
    27   13   14 ar   
    28   13   15 1    
    29   14   83 1    
    30   15   16 1    
    31   15   84 1    
    32   15   85 1    
    33   16   17 1    
    34   17   18 1    
    35   17   86 1    
    36   17   87 1    
    37   18   19 1    
    38   18   37 1    
    39   18   88 1    
    40   19   20 am   BACKBONE|DICT|INTERRES
    41   19   89 1    
    42   20   21 2    
    43   20   22 1    
    44   22   23 1    
    45   22   24 1    
    46   22   90 1    
    47   23   91 1    
    48   23   92 1    
    49   23   93 1    
    50   24   25 am   BACKBONE|DICT|INTERRES
    51   24   94 1    
    52   25   26 2    
    53   25   27 1    
    54   27   28 1    
    55   27   29 1    
    56   27   95 1    
    57   28   96 1    
    58   28   97 1    
    59   28   98 1    
    60   29   30 am   BACKBONE|DICT|INTERRES
    61   29   99 1    
    62   30   31 2    
    63   30   32 1    
    64   32   33 1    
    65   32   34 1    
    66   32  100 1    
    67   33  101 1    
    68   33  102 1    
    69   33  103 1    
    70   34   35 am   BACKBONE|DICT|INTERRES
    71   34  104 1    
    72   35   36 2    
    73   37   38 2    
    74   37   39 am   BACKBONE|DICT|INTERRES
    75   39   40 1    
    76   39  105 1    
    77   40   41 1    
    78   40   42 1    
    79   40  106 1    
    80   41  107 1    
    81   41  108 1    
    82   41  109 1    
    83   42   43 2    
    84   42   44 am   BACKBONE|DICT|INTERRES
    85   44   45 1    
    86   44  110 1    
    87   45   46 1    
    88   45   47 1    
    89   45  111 1    
    90   46  112 1    
    91   46  113 1    
    92   46  114 1    
    93   47   48 2    
    94   47   49 am   BACKBONE|DICT|INTERRES
    95   49   50 1    
    96   49  115 1    
    97   50   51 1    
    98   50   52 1    
    99   50  116 1    
   100   51  117 1    
   101   51  118 1    
   102   51  119 1    
   103   52   53 2    
   104   52   54 am   BACKBONE|DICT|INTERRES
   105   54   55 1    
   106   54  120 1    
   107   55   56 1    
   108   55   57 1    
   109   55  121 1    
   110   56  122 1    
   111   56  123 1    
   112   56  124 1    
   113   57   58 2    
   114   57   59 am   BACKBONE|DICT|INTERRES
   115   59   60 1    
   116   59  125 1    
   117   60   61 1    
   118   60   62 1    
   119   60  126 1    
   120   61  127 1    
   121   61  128 1    
   122   61  129 1    
   123   62   63 2    
   124   62   64 am   BACKBONE|DICT|INTERRES
   125   64   65 1    
   126   64  130 1    
   127   65   66 1    
   128   65   69 1    
   129   65  131 1    
   130   66   67 am   BACKBONE|DICT|INTERRES
   131   66   68 2    
   132   67  132 1    
   133   67  133 1    
   134   69   70 1    
   135   69  134 1    
   136   69  135 1    
   137   70   71 1    
   138   71  136 1    
   139   71  137 1    
@<TRIPOS>SUBSTRUCTURE
     1 UNK         1 GROUP             0       ****    0 ROOT    
