@<TRIPOS>MOLECULE
3R136
137   139    1
SMALL
USER_CHARGES


@<TRIPOS>ATOM
      1 CA         33.2823   25.0916   -1.9172 C.3       0 UNK        -0.1979 
      2 C          32.1190   24.2613   -1.3949 C.2       0 UNK         0.4864 
      3 O          31.3836   23.6790   -2.1939 O.2       0 UNK        -0.5359 
      4 N          31.9491   24.2115   -0.0644 N.am      1 UNK        -0.4318 
      5 CA         30.9322   23.4400    0.6639 C.3       1 UNK         0.0824 
      6 C6         31.2299   21.9108    0.6548 C.3       12 UNK        -0.0944 
      7 S7         32.6534   21.5049    1.7180 S.3       12 UNK        -0.2672 
      8 C8         31.8133   20.8786    3.2117 C.3       12 UNK         0.0333 
      9 C9         30.8898   21.9242    3.8230 C.ar      12 UNK        -0.0807 
     10 C10        31.4280   23.0033    4.5289 C.ar      12 UNK        -0.0894 
     11 C11        30.5923   23.9871    5.0641 C.ar      12 UNK        -0.0804 
     12 C12        29.2074   23.8730    4.9100 C.ar      12 UNK        -0.0824 
     13 C13        28.6572   22.8138    4.1842 C.ar      12 UNK        -0.0762 
     14 C14        29.5032   21.8339    3.6547 C.ar      12 UNK        -0.0782 
     15 C15        27.1536   22.7334    3.9600 C.3       12 UNK         0.0230 
     16 S16        26.5919   23.9100    2.6822 S.3       12 UNK        -0.2608 
     17 C17        26.2472   25.4165    3.6535 C.3       12 UNK        -0.0989 
     18 CA         27.1297   26.6398    3.2735 C.3       5 UNK         0.0716 
     19 N          26.8955   27.0658    1.8868 N.am      5 UNK        -0.4135 
     20 C          27.6280   27.9449    1.1889 C.2       4 UNK         0.5031 
     21 O          28.6382   28.5070    1.6220 O.2       4 UNK        -0.5229 
     22 CA         27.1592   28.2424   -0.2413 C.3       4 UNK         0.0329 
     23 CB         27.5115   29.6912   -0.6468 C.3       4 UNK        -0.2001 
     24 N          27.7548   27.2606   -1.1502 N.am      4 UNK        -0.4303 
     25 C          27.5166   27.1679   -2.4687 C.2       3 UNK         0.5044 
     26 O          26.7720   27.9257   -3.0919 O.2       3 UNK        -0.5152 
     27 CA         28.1967   26.0153   -3.2347 C.3       3 UNK         0.0319 
     28 CB         29.6187   26.4167   -3.6586 C.3       3 UNK        -0.2001 
     29 N          28.2541   24.7656   -2.4762 N.am      3 UNK        -0.4354 
     30 C          27.1931   24.1186   -1.9702 C.2       2 UNK         0.4964 
     31 O          26.0260   24.4189   -2.2250 O.2       2 UNK        -0.5047 
     32 CA         27.4601   22.9544   -0.9976 C.3       2 UNK         0.0288 
     33 CB         27.0879   21.6108   -1.6466 C.3       2 UNK        -0.2113 
     34 N          28.8293   22.8622   -0.4796 N.am      2 UNK        -0.4145 
     35 C          29.5076   23.8050    0.1946 C.2       1 UNK         0.5006 
     36 O          29.0742   24.9375    0.4173 O.2       1 UNK        -0.5103 
     37 C          26.9121   27.8018    4.2754 C.2       5 UNK         0.5055 
     38 O          25.9197   27.8007    5.0082 O.2       5 UNK        -0.5220 
     39 N          27.8239   28.7777    4.2912 N.am      6 UNK        -0.4450 
     40 CA         27.8244   29.9233    5.1924 C.3       6 UNK         0.0367 
     41 CB         26.8980   31.0278    4.6525 C.3       6 UNK        -0.1929 
     42 C          29.2573   30.4359    5.3562 C.2       6 UNK         0.5070 
     43 O          30.0537   30.3618    4.4139 O.2       6 UNK        -0.5237 
     44 N          29.5505   30.9623    6.5520 N.am      7 UNK        -0.4739 
     45 CA         30.8300   31.5746    6.9105 C.3       7 UNK         0.0276 
     46 CB         30.8324   31.9153    8.4094 C.3       7 UNK        -0.1927 
     47 C          31.1002   32.8268    6.0646 C.2       7 UNK         0.5013 
     48 O          30.2368   33.7038    5.9912 O.2       7 UNK        -0.5193 
     49 N          32.2803   32.8611    5.4339 N.am      8 UNK        -0.4253 
     50 CA         32.7549   33.8693    4.4794 C.3       8 UNK         0.0242 
     51 CB         32.7685   35.2874    5.0909 C.3       8 UNK        -0.2000 
     52 C          32.0488   33.8176    3.1089 C.2       8 UNK         0.4948 
     53 O          32.2941   34.7009    2.2848 O.2       8 UNK        -0.5275 
     54 N          31.2344   32.7802    2.8620 N.am      9 UNK        -0.4246 
     55 CA         30.7475   32.4052    1.5375 C.3       9 UNK         0.0261 
     56 CB         29.2551   32.0367    1.6068 C.3       9 UNK        -0.1959 
     57 C          31.6711   31.2871    1.0304 C.2       9 UNK         0.5033 
     58 O          32.8270   31.5850    0.7214 O.2       9 UNK        -0.5390 
     59 N          31.1993   30.0324    0.9705 N.am      10 UNK        -0.4215 
     60 CA         32.0494   28.8913    0.6165 C.3       10 UNK         0.0240 
     61 CB         31.2019   27.7759   -0.0117 C.3       10 UNK        -0.1982 
     62 C          32.8556   28.3563    1.8143 C.2       10 UNK         0.4970 
     63 O          33.8697   27.6949    1.5868 O.2       10 UNK        -0.4916 
     64 N          32.4074   28.6274    3.0487 N.am      11 UNK        -0.4279 
     65 CA         33.0771   28.1951    4.2834 C.3       11 UNK         0.1003 
     66 C          34.0890   29.2730    4.7443 C.2       11 UNK         0.5709 
     67 N          35.3506   28.9115    4.9302 N.am      11 UNK        -0.7358 
     68 O          33.7284   30.4271    4.9729 O.2       11 UNK        -0.4999 
     69 C69        32.0709   27.8637    5.4169 C.3       12 UNK        -0.0954 
     70 S70        30.7628   26.7194    4.8738 S.3       12 UNK        -0.2268 
     71 C71        31.1864   25.1956    5.7690 C.3       12 UNK         0.0203 
     72 H72        32.9172   25.8714   -2.5850 H         1 UNK         0.0888 
     73 H73        33.8402   25.5675   -1.1105 H         1 UNK         0.0888 
     74 H74        33.9703   24.4589   -2.4772 H         1 UNK         0.0888 
     75 H75        32.5813   24.7331    0.5260 H         1 UNK         0.3017 
     76 H76        30.9742   23.7887    1.6968 H         1 UNK         0.0873 
     77 H77        31.4428   21.5577   -0.3557 H         1 UNK         0.0745 
     78 H78        30.3763   21.3274    1.0021 H         1 UNK         0.0745 
     79 H79        32.5660   20.5849    3.9447 H         1 UNK         0.0705 
     80 H80        31.2609   19.9713    2.9619 H         1 UNK         0.0705 
     81 H81        32.5010   23.0869    4.6369 H         1 UNK         0.1334 
     82 H82        28.5634   24.6361    5.3229 H         1 UNK         0.1417 
     83 H83        29.0825   21.0090    3.0957 H         1 UNK         0.1562 
     84 H84        26.6219   22.9003    4.8977 H         1 UNK         0.0748 
     85 H85        26.8779   21.7277    3.6392 H         1 UNK         0.0748 
     86 H86        26.3582   25.1836    4.7136 H         1 UNK         0.0940 
     87 H87        25.1906   25.6587    3.5221 H         1 UNK         0.0940 
     88 H88        28.1757   26.3362    3.3499 H         1 UNK         0.0703 
     89 H89        26.1003   26.6398    1.4351 H         1 UNK         0.3081 
     90 H90        26.0739   28.1302   -0.2770 H         1 UNK         0.0719 
     91 H91        27.1478   30.3950    0.1022 H         1 UNK         0.0809 
     92 H92        28.5879   29.8329   -0.7458 H         1 UNK         0.0809 
     93 H93        27.0491   29.9792   -1.5898 H         1 UNK         0.0809 
     94 H94        28.3428   26.5592   -0.7066 H         1 UNK         0.2990 
     95 H95        27.6106   25.8240   -4.1358 H         1 UNK         0.0690 
     96 H96        30.2618   26.5936   -2.7958 H         1 UNK         0.0788 
     97 H97        29.6062   27.3330   -4.2505 H         1 UNK         0.0788 
     98 H98        30.0848   25.6426   -4.2687 H         1 UNK         0.0788 
     99 H99        29.1767   24.4241   -2.2357 H         1 UNK         0.2993 
    100 H100       26.8029   23.1123   -0.1414 H         1 UNK         0.0949 
    101 H101       27.7339   21.3814   -2.4951 H         1 UNK         0.0767 
    102 H102       27.1629   20.7900   -0.9330 H         1 UNK         0.0767 
    103 H103       26.0603   21.6231   -2.0131 H         1 UNK         0.0767 
    104 H104       29.3062   21.9924   -0.6653 H         1 UNK         0.3013 
    105 H105       28.5912   28.7460    3.6240 H         1 UNK         0.3121 
    106 H106       27.4645   29.6003    6.1718 H         1 UNK         0.0774 
    107 H107       26.9303   31.9134    5.2886 H         1 UNK         0.0815 
    108 H108       27.1824   31.3371    3.6472 H         1 UNK         0.0815 
    109 H109       25.8614   30.6931    4.6165 H         1 UNK         0.0815 
    110 H110       28.8220   31.0133    7.2493 H         1 UNK         0.2987 
    111 H111       31.6197   30.8443    6.7282 H         1 UNK         0.0949 
    112 H112       30.6869   31.0242    9.0203 H         1 UNK         0.0806 
    113 H113       31.7842   32.3583    8.7059 H         1 UNK         0.0806 
    114 H114       30.0481   32.6299    8.6629 H         1 UNK         0.0806 
    115 H115       32.8775   32.0383    5.5010 H         1 UNK         0.3010 
    116 H116       33.7923   33.5985    4.2763 H         1 UNK         0.0829 
    117 H117       33.2701   35.2990    6.0585 H         1 UNK         0.0813 
    118 H118       33.3012   35.9849    4.4435 H         1 UNK         0.0813 
    119 H119       31.7620   35.6833    5.2273 H         1 UNK         0.0813 
    120 H120       31.0865   32.0930    3.5926 H         1 UNK         0.3038 
    121 H121       30.8439   33.2440    0.8450 H         1 UNK         0.0769 
    122 H122       28.6748   32.8422    2.0567 H         1 UNK         0.0811 
    123 H123       28.8602   31.8845    0.6037 H         1 UNK         0.0811 
    124 H124       29.0640   31.1337    2.1835 H         1 UNK         0.0811 
    125 H125       30.2475   29.8192    1.2546 H         1 UNK         0.3204 
    126 H126       32.7660   29.2113   -0.1433 H         1 UNK         0.0748 
    127 H127       30.6432   27.2140    0.7370 H         1 UNK         0.0771 
    128 H128       30.4975   28.1675   -0.7447 H         1 UNK         0.0771 
    129 H129       31.8421   27.0666   -0.5299 H         1 UNK         0.0771 
    130 H130       31.5772   29.1913    3.1767 H         1 UNK         0.2980 
    131 H131       33.6249   27.2733    4.0770 H         1 UNK         0.0545 
    132 H132       36.0146   29.6014    5.2444 H         1 UNK         0.3459 
    133 H133       35.6558   27.9680    4.7491 H         1 UNK         0.3459 
    134 H134       32.5936   27.4406    6.2763 H         1 UNK         0.0616 
    135 H135       31.5854   28.7648    5.7838 H         1 UNK         0.0616 
    136 H136       30.8085   25.2549    6.7904 H         1 UNK         0.0634 
    137 H137       32.2715   25.1027    5.8358 H         1 UNK         0.0634 
@<TRIPOS>BOND
     1    1    2 1    
     2    1   72 1    
     3    1   73 1    
     4    1   74 1    
     5    2    3 2    
     6    2    4 am   BACKBONE|DICT|INTERRES
     7    4    5 1    
     8    4   75 1    
     9    5    6 1    
    10    5   35 1    
    11    5   76 1    
    12    6    7 1    
    13    6   77 1    
    14    6   78 1    
    15    7    8 1    
    16    8    9 1    
    17    8   79 1    
    18    8   80 1    
    19    9   10 ar   
    20    9   14 ar   
    21   10   11 ar   
    22   10   81 1    
    23   11   12 ar   
    24   11   71 1    
    25   12   13 ar   
    26   12   82 1    
    27   13   14 ar   
    28   13   15 1    
    29   14   83 1    
    30   15   16 1    
    31   15   84 1    
    32   15   85 1    
    33   16   17 1    
    34   17   18 1    
    35   17   86 1    
    36   17   87 1    
    37   18   19 1    
    38   18   37 1    
    39   18   88 1    
    40   19   20 am   BACKBONE|DICT|INTERRES
    41   19   89 1    
    42   20   21 2    
    43   20   22 1    
    44   22   23 1    
    45   22   24 1    
    46   22   90 1    
    47   23   91 1    
    48   23   92 1    
    49   23   93 1    
    50   24   25 am   BACKBONE|DICT|INTERRES
    51   24   94 1    
    52   25   26 2    
    53   25   27 1    
    54   27   28 1    
    55   27   29 1    
    56   27   95 1    
    57   28   96 1    
    58   28   97 1    
    59   28   98 1    
    60   29   30 am   BACKBONE|DICT|INTERRES
    61   29   99 1    
    62   30   31 2    
    63   30   32 1    
    64   32   33 1    
    65   32   34 1    
    66   32  100 1    
    67   33  101 1    
    68   33  102 1    
    69   33  103 1    
    70   34   35 am   BACKBONE|DICT|INTERRES
    71   34  104 1    
    72   35   36 2    
    73   37   38 2    
    74   37   39 am   BACKBONE|DICT|INTERRES
    75   39   40 1    
    76   39  105 1    
    77   40   41 1    
    78   40   42 1    
    79   40  106 1    
    80   41  107 1    
    81   41  108 1    
    82   41  109 1    
    83   42   43 2    
    84   42   44 am   BACKBONE|DICT|INTERRES
    85   44   45 1    
    86   44  110 1    
    87   45   46 1    
    88   45   47 1    
    89   45  111 1    
    90   46  112 1    
    91   46  113 1    
    92   46  114 1    
    93   47   48 2    
    94   47   49 am   BACKBONE|DICT|INTERRES
    95   49   50 1    
    96   49  115 1    
    97   50   51 1    
    98   50   52 1    
    99   50  116 1    
   100   51  117 1    
   101   51  118 1    
   102   51  119 1    
   103   52   53 2    
   104   52   54 am   BACKBONE|DICT|INTERRES
   105   54   55 1    
   106   54  120 1    
   107   55   56 1    
   108   55   57 1    
   109   55  121 1    
   110   56  122 1    
   111   56  123 1    
   112   56  124 1    
   113   57   58 2    
   114   57   59 am   BACKBONE|DICT|INTERRES
   115   59   60 1    
   116   59  125 1    
   117   60   61 1    
   118   60   62 1    
   119   60  126 1    
   120   61  127 1    
   121   61  128 1    
   122   61  129 1    
   123   62   63 2    
   124   62   64 am   BACKBONE|DICT|INTERRES
   125   64   65 1    
   126   64  130 1    
   127   65   66 1    
   128   65   69 1    
   129   65  131 1    
   130   66   67 am   BACKBONE|DICT|INTERRES
   131   66   68 2    
   132   67  132 1    
   133   67  133 1    
   134   69   70 1    
   135   69  134 1    
   136   69  135 1    
   137   70   71 1    
   138   71  136 1    
   139   71  137 1    
@<TRIPOS>SUBSTRUCTURE
     1 UNK         1 GROUP             0       ****    0 ROOT    
