@<TRIPOS>MOLECULE
3R136
137   139    1
SMALL
USER_CHARGES


@<TRIPOS>ATOM
      1 CA         32.9730   24.9201   -0.1686 C.3       0 UNK        -0.1979 
      2 C          31.5657   25.0668    0.3881 C.2       0 UNK         0.4864 
      3 O          31.0882   26.1883    0.5461 O.2       0 UNK        -0.5359 
      4 N          30.8988   23.9471    0.6889 N.am      1 UNK        -0.4318 
      5 CA         29.5277   23.9236    1.1951 C.3       1 UNK         0.0824 
      6 C6         29.2769   22.6852    2.0953 C.3       12 UNK        -0.0944 
      7 S7         27.7581   22.8478    3.0924 S.3       12 UNK        -0.2672 
      8 C8         28.4365   23.3895    4.6945 C.3       12 UNK         0.0333 
      9 C9         28.9528   24.8201    4.6335 C.ar      12 UNK        -0.0807 
     10 C10        30.3085   25.0800    4.4089 C.ar      12 UNK        -0.0894 
     11 C11        30.7802   26.3955    4.3459 C.ar      12 UNK        -0.0804 
     12 C12        29.8842   27.4564    4.5099 C.ar      12 UNK        -0.0824 
     13 C13        28.5283   27.2078    4.7454 C.ar      12 UNK        -0.0762 
     14 C14        28.0697   25.8885    4.8065 C.ar      12 UNK        -0.0782 
     15 C15        27.5567   28.3577    4.9624 C.3       12 UNK         0.0230 
     16 S16        26.3349   28.4814    3.6195 S.3       12 UNK        -0.2608 
     17 C17        27.3363   29.1687    2.2581 C.3       12 UNK        -0.0989 
     18 CA         27.5987   28.1533    1.1087 C.3       5 UNK         0.0716 
     19 N          26.3962   27.5254    0.5451 N.am      5 UNK        -0.4135 
     20 C          25.3349   28.1474    0.0085 C.2       4 UNK         0.5031 
     21 O          25.1777   29.3690    0.0053 O.2       4 UNK        -0.5229 
     22 CA         24.2633   27.2783   -0.6768 C.3       4 UNK         0.0329 
     23 CB         24.2936   27.4989   -2.1991 C.3       4 UNK        -0.2001 
     24 N          24.3909   25.8442   -0.4187 N.am      4 UNK        -0.4303 
     25 C          24.0532   25.2075    0.7079 C.2       3 UNK         0.5044 
     26 O          23.5920   25.7756    1.6974 O.2       3 UNK        -0.5152 
     27 CA         24.2678   23.6797    0.7495 C.3       3 UNK         0.0319 
     28 CB         23.0053   22.9326    0.2778 C.3       3 UNK        -0.2001 
     29 N          25.4701   23.2003    0.0467 N.am      3 UNK        -0.4354 
     30 C          25.7693   23.2453   -1.2630 C.2       2 UNK         0.4964 
     31 O          24.9969   23.6710   -2.1230 O.2       2 UNK        -0.5047 
     32 CA         27.1860   22.7879   -1.6740 C.3       2 UNK         0.0288 
     33 CB         27.6752   23.4811   -2.9643 C.3       2 UNK        -0.2113 
     34 N          28.1826   22.9349   -0.6027 N.am      2 UNK        -0.4145 
     35 C          28.5344   24.0682    0.0269 C.2       1 UNK         0.5006 
     36 O          28.0947   25.1836   -0.2630 O.2       1 UNK        -0.5103 
     37 C          28.4222   28.7663   -0.0399 C.2       5 UNK         0.5055 
     38 O          28.5345   29.9902   -0.1375 O.2       5 UNK        -0.5220 
     39 N          28.9360   27.8967   -0.9231 N.am      6 UNK        -0.4450 
     40 CA         29.7465   28.2567   -2.0931 C.3       6 UNK         0.0367 
     41 CB         30.0901   26.9902   -2.8931 C.3       6 UNK        -0.1929 
     42 C          31.0178   29.0453   -1.7287 C.2       6 UNK         0.5070 
     43 O          31.3291   30.0385   -2.3874 O.2       6 UNK        -0.5237 
     44 N          31.6908   28.6249   -0.6521 N.am      7 UNK        -0.4739 
     45 CA         32.6808   29.4139    0.0692 C.3       7 UNK         0.0276 
     46 CB         33.7453   28.4768    0.6671 C.3       7 UNK        -0.1927 
     47 C          31.9275   30.1927    1.1555 C.2       7 UNK         0.5013 
     48 O          31.6701   29.6510    2.2319 O.2       7 UNK        -0.5193 
     49 N          31.5458   31.4372    0.8455 N.am      8 UNK        -0.4253 
     50 CA         30.7966   32.3310    1.7334 C.3       8 UNK         0.0242 
     51 CB         30.0774   33.3917    0.8795 C.3       8 UNK        -0.2000 
     52 C          31.7056   32.9498    2.8144 C.2       8 UNK         0.4948 
     53 O          31.8966   34.1675    2.8435 O.2       8 UNK        -0.5275 
     54 N          32.2734   32.0923    3.6661 N.am      9 UNK        -0.4246 
     55 CA         33.2062   32.4188    4.7383 C.3       9 UNK         0.0261 
     56 CB         34.6170   32.6279    4.1510 C.3       9 UNK        -0.1959 
     57 C          33.1979   31.2770    5.7623 C.2       9 UNK         0.5033 
     58 O          32.6260   30.2144    5.5004 O.2       9 UNK        -0.5390 
     59 N          33.8558   31.5034    6.9056 N.am      10 UNK        -0.4215 
     60 CA         34.0699   30.5105    7.9600 C.3       10 UNK         0.0240 
     61 CB         34.4088   31.2393    9.2744 C.3       10 UNK        -0.1982 
     62 C          35.1593   29.5020    7.5476 C.2       10 UNK         0.4970 
     63 O          36.3024   29.6102    7.9966 O.2       10 UNK        -0.4916 
     64 N          34.7875   28.5696    6.6642 N.am      11 UNK        -0.4279 
     65 CA         35.6254   27.4691    6.1679 C.3       11 UNK         0.1003 
     66 C          36.1263   26.4992    7.2790 C.2       11 UNK         0.5709 
     67 N          37.2363   25.8120    7.0425 N.am      11 UNK        -0.7358 
     68 O          35.5118   26.3415    8.3335 O.2       11 UNK        -0.4999 
     69 C69        34.9302   26.7134    5.0018 C.3       12 UNK        -0.0954 
     70 S70        33.2942   26.0272    5.4414 S.3       12 UNK        -0.2268 
     71 C71        32.2554   26.6720    4.0943 C.3       12 UNK         0.0203 
     72 H72        33.0890   25.5355   -1.0610 H         1 UNK         0.0888 
     73 H73        33.7031   25.2497    0.5705 H         1 UNK         0.0888 
     74 H74        33.1991   23.8880   -0.4367 H         1 UNK         0.0888 
     75 H75        31.3325   23.0499    0.5258 H         1 UNK         0.3017 
     76 H76        29.3869   24.8094    1.8178 H         1 UNK         0.0873 
     77 H77        29.2297   21.7587    1.5217 H         1 UNK         0.0745 
     78 H78        30.1189   22.5487    2.7752 H         1 UNK         0.0745 
     79 H79        27.6522   23.3160    5.4493 H         1 UNK         0.0705 
     80 H80        29.2256   22.7068    5.0133 H         1 UNK         0.0705 
     81 H81        31.0015   24.2603    4.2791 H         1 UNK         0.1334 
     82 H82        30.2476   28.4747    4.4589 H         1 UNK         0.1417 
     83 H83        27.0200   25.6949    4.9825 H         1 UNK         0.1562 
     84 H84        28.0838   29.3072    5.0685 H         1 UNK         0.0748 
     85 H85        27.0268   28.1988    5.9026 H         1 UNK         0.0748 
     86 H86        28.2880   29.5283    2.6541 H         1 UNK         0.0940 
     87 H87        26.8222   30.0564    1.8866 H         1 UNK         0.0940 
     88 H88        28.2007   27.3438    1.5264 H         1 UNK         0.0703 
     89 H89        26.4578   26.5219    0.4336 H         1 UNK         0.3081 
     90 H90        23.2919   27.6067   -0.3013 H         1 UNK         0.0719 
     91 H91        24.1568   28.5526   -2.4465 H         1 UNK         0.0809 
     92 H92        25.2436   27.1823   -2.6322 H         1 UNK         0.0809 
     93 H93        23.4969   26.9455   -2.6967 H         1 UNK         0.0809 
     94 H94        24.7147   25.2649   -1.1890 H         1 UNK         0.2990 
     95 H95        24.4258   23.4225    1.7984 H         1 UNK         0.0690 
     96 H96        23.1247   21.8534    0.3724 H         1 UNK         0.0788 
     97 H97        22.7627   23.1540   -0.7619 H         1 UNK         0.0788 
     98 H98        22.1399   23.2167    0.8780 H         1 UNK         0.0788 
     99 H99        26.1939   22.8520    0.6602 H         1 UNK         0.2993 
    100 H100       27.1080   21.7193   -1.8800 H         1 UNK         0.0949 
    101 H101       27.6815   24.5665   -2.8615 H         1 UNK         0.0767 
    102 H102       28.6833   23.1631   -3.2296 H         1 UNK         0.0767 
    103 H103       27.0282   23.2400   -3.8086 H         1 UNK         0.0767 
    104 H104       28.6048   22.0723   -0.2885 H         1 UNK         0.3013 
    105 H105       28.7893   26.9041   -0.7526 H         1 UNK         0.3121 
    106 H106       29.1328   28.9020   -2.7248 H         1 UNK         0.0774 
    107 H107       30.6542   26.2744   -2.2950 H         1 UNK         0.0815 
    108 H108       29.1890   26.4917   -3.2494 H         1 UNK         0.0815 
    109 H109       30.6937   27.2330   -3.7686 H         1 UNK         0.0815 
    110 H110       31.3518   27.7926   -0.1664 H         1 UNK         0.2987 
    111 H111       33.1803   30.1158   -0.6023 H         1 UNK         0.0949 
    112 H112       34.2795   27.9368   -0.1144 H         1 UNK         0.0806 
    113 H113       34.4832   29.0408    1.2386 H         1 UNK         0.0806 
    114 H114       33.3058   27.7407    1.3406 H         1 UNK         0.0806 
    115 H115       31.7753   31.7998   -0.0689 H         1 UNK         0.3010 
    116 H116       30.0290   31.7483    2.2482 H         1 UNK         0.0829 
    117 H117       30.7817   34.0072    0.3186 H         1 UNK         0.0813 
    118 H118       29.4842   34.0601    1.5050 H         1 UNK         0.0813 
    119 H119       29.3947   32.9266    0.1674 H         1 UNK         0.0813 
    120 H120       32.0578   31.0997    3.5817 H         1 UNK         0.3038 
    121 H121       32.8718   33.3303    5.2389 H         1 UNK         0.0769 
    122 H122       34.6300   33.4411    3.4250 H         1 UNK         0.0811 
    123 H123       34.9787   31.7286    3.6500 H         1 UNK         0.0811 
    124 H124       35.3398   32.8833    4.9266 H         1 UNK         0.0811 
    125 H125       34.3182   32.3929    7.0290 H         1 UNK         0.3204 
    126 H126       33.1427   29.9549    8.1188 H         1 UNK         0.0748 
    127 H127       35.3092   31.8484    9.1828 H         1 UNK         0.0771 
    128 H128       33.5932   31.8922    9.5868 H         1 UNK         0.0771 
    129 H129       34.5783   30.5258   10.0823 H         1 UNK         0.0771 
    130 H130       33.8390   28.6001    6.3097 H         1 UNK         0.2980 
    131 H131       36.5181   27.9429    5.7543 H         1 UNK         0.0545 
    132 H132       37.5731   25.1704    7.7434 H         1 UNK         0.3459 
    133 H133       37.7457   25.9227    6.1793 H         1 UNK         0.3459 
    134 H134       35.5590   25.8988    4.6381 H         1 UNK         0.0616 
    135 H135       34.8174   27.3922    4.1549 H         1 UNK         0.0616 
    136 H136       32.5549   26.2115    3.1523 H         1 UNK         0.0634 
    137 H137       32.4315   27.7438    3.9906 H         1 UNK         0.0634 
@<TRIPOS>BOND
     1    1    2 1    
     2    1   72 1    
     3    1   73 1    
     4    1   74 1    
     5    2    3 2    
     6    2    4 am   BACKBONE|DICT|INTERRES
     7    4    5 1    
     8    4   75 1    
     9    5    6 1    
    10    5   35 1    
    11    5   76 1    
    12    6    7 1    
    13    6   77 1    
    14    6   78 1    
    15    7    8 1    
    16    8    9 1    
    17    8   79 1    
    18    8   80 1    
    19    9   10 ar   
    20    9   14 ar   
    21   10   11 ar   
    22   10   81 1    
    23   11   12 ar   
    24   11   71 1    
    25   12   13 ar   
    26   12   82 1    
    27   13   14 ar   
    28   13   15 1    
    29   14   83 1    
    30   15   16 1    
    31   15   84 1    
    32   15   85 1    
    33   16   17 1    
    34   17   18 1    
    35   17   86 1    
    36   17   87 1    
    37   18   19 1    
    38   18   37 1    
    39   18   88 1    
    40   19   20 am   BACKBONE|DICT|INTERRES
    41   19   89 1    
    42   20   21 2    
    43   20   22 1    
    44   22   23 1    
    45   22   24 1    
    46   22   90 1    
    47   23   91 1    
    48   23   92 1    
    49   23   93 1    
    50   24   25 am   BACKBONE|DICT|INTERRES
    51   24   94 1    
    52   25   26 2    
    53   25   27 1    
    54   27   28 1    
    55   27   29 1    
    56   27   95 1    
    57   28   96 1    
    58   28   97 1    
    59   28   98 1    
    60   29   30 am   BACKBONE|DICT|INTERRES
    61   29   99 1    
    62   30   31 2    
    63   30   32 1    
    64   32   33 1    
    65   32   34 1    
    66   32  100 1    
    67   33  101 1    
    68   33  102 1    
    69   33  103 1    
    70   34   35 am   BACKBONE|DICT|INTERRES
    71   34  104 1    
    72   35   36 2    
    73   37   38 2    
    74   37   39 am   BACKBONE|DICT|INTERRES
    75   39   40 1    
    76   39  105 1    
    77   40   41 1    
    78   40   42 1    
    79   40  106 1    
    80   41  107 1    
    81   41  108 1    
    82   41  109 1    
    83   42   43 2    
    84   42   44 am   BACKBONE|DICT|INTERRES
    85   44   45 1    
    86   44  110 1    
    87   45   46 1    
    88   45   47 1    
    89   45  111 1    
    90   46  112 1    
    91   46  113 1    
    92   46  114 1    
    93   47   48 2    
    94   47   49 am   BACKBONE|DICT|INTERRES
    95   49   50 1    
    96   49  115 1    
    97   50   51 1    
    98   50   52 1    
    99   50  116 1    
   100   51  117 1    
   101   51  118 1    
   102   51  119 1    
   103   52   53 2    
   104   52   54 am   BACKBONE|DICT|INTERRES
   105   54   55 1    
   106   54  120 1    
   107   55   56 1    
   108   55   57 1    
   109   55  121 1    
   110   56  122 1    
   111   56  123 1    
   112   56  124 1    
   113   57   58 2    
   114   57   59 am   BACKBONE|DICT|INTERRES
   115   59   60 1    
   116   59  125 1    
   117   60   61 1    
   118   60   62 1    
   119   60  126 1    
   120   61  127 1    
   121   61  128 1    
   122   61  129 1    
   123   62   63 2    
   124   62   64 am   BACKBONE|DICT|INTERRES
   125   64   65 1    
   126   64  130 1    
   127   65   66 1    
   128   65   69 1    
   129   65  131 1    
   130   66   67 am   BACKBONE|DICT|INTERRES
   131   66   68 2    
   132   67  132 1    
   133   67  133 1    
   134   69   70 1    
   135   69  134 1    
   136   69  135 1    
   137   70   71 1    
   138   71  136 1    
   139   71  137 1    
@<TRIPOS>SUBSTRUCTURE
     1 UNK         1 GROUP             0       ****    0 ROOT    
