@<TRIPOS>MOLECULE
3R136
137   139    1
SMALL
USER_CHARGES


@<TRIPOS>ATOM
      1 CA         26.7082   21.7347    0.5403 C.3       0 UNK        -0.1979 
      2 C          27.8699   22.2807   -0.2751 C.2       0 UNK         0.4864 
      3 O          27.7333   22.4539   -1.4870 O.2       0 UNK        -0.5359 
      4 N          29.0147   22.5349    0.3726 N.am      1 UNK        -0.4318 
      5 CA         30.2354   23.0314   -0.2720 C.3       1 UNK         0.0824 
      6 C6         31.4887   22.8892    0.6258 C.3       12 UNK        -0.0944 
      7 S7         31.7875   21.1641    1.1424 S.3       12 UNK        -0.2672 
      8 C8         32.6170   21.3879    2.7544 C.3       12 UNK         0.0333 
      9 C9         31.7960   22.2033    3.7482 C.ar      12 UNK        -0.0807 
     10 C10        32.3817   23.2768    4.4270 C.ar      12 UNK        -0.0894 
     11 C11        31.6325   24.0455    5.3237 C.ar      12 UNK        -0.0804 
     12 C12        30.2835   23.7436    5.5306 C.ar      12 UNK        -0.0824 
     13 C13        29.6857   22.6796    4.8492 C.ar      12 UNK        -0.0762 
     14 C14        30.4509   21.9004    3.9786 C.ar      12 UNK        -0.0782 
     15 C15        28.2088   22.3753    5.0265 C.3       12 UNK         0.0230 
     16 S16        27.2260   23.1500    3.7046 S.3       12 UNK        -0.2608 
     17 C17        27.0775   24.8695    4.2942 C.3       12 UNK        -0.0989 
     18 CA         27.7382   25.9373    3.3683 C.3       5 UNK         0.0716 
     19 N          27.3113   25.8646    1.9609 N.am      5 UNK        -0.4135 
     20 C          26.0496   25.9323    1.5108 C.2       4 UNK         0.5031 
     21 O          25.0690   26.0987    2.2389 O.2       4 UNK        -0.5229 
     22 CA         25.8566   25.8196   -0.0171 C.3       4 UNK         0.0329 
     23 CB         24.3934   26.0483   -0.4493 C.3       4 UNK        -0.2001 
     24 N          26.7430   26.6902   -0.7990 N.am      4 UNK        -0.4303 
     25 C          26.9605   28.0027   -0.6358 C.2       3 UNK         0.5044 
     26 O          26.4662   28.6607    0.2781 O.2       3 UNK        -0.5152 
     27 CA         27.9002   28.6907   -1.6512 C.3       3 UNK         0.0319 
     28 CB         28.2419   30.1358   -1.2437 C.3       3 UNK        -0.2001 
     29 N          29.1522   27.9569   -1.8484 N.am      3 UNK        -0.4354 
     30 C          29.3010   26.8336   -2.5610 C.2       2 UNK         0.4964 
     31 O          28.3874   26.3056   -3.1970 O.2       2 UNK        -0.5047 
     32 CA         30.6777   26.1456   -2.5189 C.3       2 UNK         0.0288 
     33 CB         31.7914   26.9830   -1.8524 C.3       2 UNK        -0.2113 
     34 N          30.6091   24.8208   -1.8910 N.am      2 UNK        -0.4145 
     35 C          30.0712   24.5000   -0.7020 C.2       1 UNK         0.5006 
     36 O          29.5112   25.2952    0.0617 O.2       1 UNK        -0.5103 
     37 C          27.6027   27.3469    4.0010 C.2       5 UNK         0.5055 
     38 O          27.7902   27.4601    5.2145 O.2       5 UNK        -0.5220 
     39 N          27.2844   28.3991    3.2267 N.am      6 UNK        -0.4450 
     40 CA         27.1712   29.7743    3.7279 C.3       6 UNK         0.0367 
     41 CB         26.3974   30.6410    2.7197 C.3       6 UNK        -0.1929 
     42 C          28.5615   30.3608    4.0182 C.2       6 UNK         0.5070 
     43 O          29.2078   30.8761    3.1044 O.2       6 UNK        -0.5237 
     44 N          29.0173   30.2306    5.2697 N.am      7 UNK        -0.4739 
     45 CA         30.3445   30.6391    5.7353 C.3       7 UNK         0.0276 
     46 CB         30.4694   30.3481    7.2387 C.3       7 UNK        -0.1927 
     47 C          30.6659   32.1147    5.4337 C.2       7 UNK         0.5013 
     48 O          29.8208   32.9792    5.6734 O.2       7 UNK        -0.5193 
     49 N          31.8764   32.3405    4.9076 N.am      8 UNK        -0.4253 
     50 CA         32.4654   33.5788    4.3780 C.3       8 UNK         0.0242 
     51 CB         32.0672   34.8566    5.1452 C.3       8 UNK        -0.2000 
     52 C          32.2711   33.7227    2.8598 C.2       8 UNK         0.4948 
     53 O          33.1136   34.3539    2.2198 O.2       8 UNK        -0.5275 
     54 N          31.2211   33.1077    2.2967 N.am      9 UNK        -0.4246 
     55 CA         31.0998   32.8590    0.8574 C.3       9 UNK         0.0261 
     56 CB         29.6336   32.9982    0.4143 C.3       9 UNK        -0.1959 
     57 C          31.6701   31.4661    0.5449 C.2       9 UNK         0.5033 
     58 O          32.5391   31.3387   -0.3185 O.2       9 UNK        -0.5390 
     59 N          31.2096   30.4643    1.3025 N.am      10 UNK        -0.4215 
     60 CA         31.8128   29.1429    1.4430 C.3       10 UNK         0.0240 
     61 CB         30.6804   28.1164    1.6523 C.3       10 UNK        -0.1982 
     62 C          32.7673   29.1328    2.6514 C.2       10 UNK         0.4970 
     63 O          32.8875   30.1348    3.3635 O.2       10 UNK        -0.4916 
     64 N          33.3809   27.9692    2.8941 N.am      11 UNK        -0.4279 
     65 CA         34.1932   27.6619    4.0838 C.3       11 UNK         0.1003 
     66 C          35.5367   28.4533    4.1308 C.2       11 UNK         0.5709 
     67 N          36.1789   28.5615    5.2870 N.am      11 UNK        -0.7358 
     68 O          36.0384   28.9277    3.1127 O.2       11 UNK        -0.4999 
     69 C69        33.3702   27.7282    5.4108 C.3       12 UNK        -0.0954 
     70 S70        31.8010   26.7960    5.3242 S.3       12 UNK        -0.2268 
     71 C71        32.2798   25.2053    6.0632 C.3       12 UNK         0.0203 
     72 H72        26.1214   21.0360   -0.0555 H         1 UNK         0.0888 
     73 H73        27.0585   21.2031    1.4247 H         1 UNK         0.0888 
     74 H74        26.0533   22.5446    0.8594 H         1 UNK         0.0888 
     75 H75        29.0665   22.4123    1.3735 H         1 UNK         0.3017 
     76 H76        30.3960   22.4272   -1.1679 H         1 UNK         0.0873 
     77 H77        32.3804   23.2333    0.0979 H         1 UNK         0.0745 
     78 H78        31.3917   23.5313    1.5028 H         1 UNK         0.0745 
     79 H79        33.5875   21.8552    2.5798 H         1 UNK         0.0705 
     80 H80        32.8194   20.4069    3.1860 H         1 UNK         0.0705 
     81 H81        33.4218   23.5182    4.2553 H         1 UNK         0.1334 
     82 H82        29.6990   24.3495    6.2094 H         1 UNK         0.1417 
     83 H83        29.9903   21.0738    3.4547 H         1 UNK         0.1562 
     84 H84        27.8545   22.7015    6.0055 H         1 UNK         0.0748 
     85 H85        28.0508   21.2962    4.9936 H         1 UNK         0.0748 
     86 H86        27.5038   24.9261    5.2966 H         1 UNK         0.0940 
     87 H87        26.0156   25.0818    4.4270 H         1 UNK         0.0940 
     88 H88        28.8100   25.7314    3.3513 H         1 UNK         0.0703 
     89 H89        28.0589   25.7342    1.2821 H         1 UNK         0.3081 
     90 H90        26.1233   24.7968   -0.2840 H         1 UNK         0.0719 
     91 H91        24.0553   27.0557   -0.2028 H         1 UNK         0.0809 
     92 H92        24.2698   25.9064   -1.5229 H         1 UNK         0.0809 
     93 H93        23.7223   25.3468    0.0480 H         1 UNK         0.0809 
     94 H94        27.2302   26.2467   -1.5716 H         1 UNK         0.2990 
     95 H95        27.3668   28.7295   -2.6031 H         1 UNK         0.0690 
     96 H96        28.8899   30.6152   -1.9774 H         1 UNK         0.0788 
     97 H97        28.7442   30.1680   -0.2766 H         1 UNK         0.0788 
     98 H98        27.3406   30.7449   -1.1623 H         1 UNK         0.0788 
     99 H99        29.9512   28.2914   -1.3310 H         1 UNK         0.2993 
    100 H100       30.9621   25.9875   -3.5606 H         1 UNK         0.0949 
    101 H101       31.6271   27.0940   -0.7828 H         1 UNK         0.0767 
    102 H102       32.7631   26.5059   -1.9814 H         1 UNK         0.0767 
    103 H103       31.8680   27.9785   -2.2925 H         1 UNK         0.0767 
    104 H104       31.0088   24.0727   -2.4402 H         1 UNK         0.3013 
    105 H105       27.1152   28.2655    2.2351 H         1 UNK         0.3121 
    106 H106       26.5961   29.7615    4.6563 H         1 UNK         0.0774 
    107 H107       26.2456   31.6474    3.1111 H         1 UNK         0.0815 
    108 H108       26.9310   30.7416    1.7741 H         1 UNK         0.0815 
    109 H109       25.4144   30.2214    2.5057 H         1 UNK         0.0815 
    110 H110       28.4373   29.7384    5.9351 H         1 UNK         0.2987 
    111 H111       31.0610   30.0064    5.2102 H         1 UNK         0.0949 
    112 H112       29.7389   30.9124    7.8199 H         1 UNK         0.0806 
    113 H113       30.3250   29.2882    7.4502 H         1 UNK         0.0806 
    114 H114       31.4600   30.6179    7.6074 H         1 UNK         0.0806 
    115 H115       32.4214   31.5141    4.6705 H         1 UNK         0.3010 
    116 H116       33.5389   33.4497    4.5252 H         1 UNK         0.0829 
    117 H117       32.2002   34.7364    6.2203 H         1 UNK         0.0813 
    118 H118       32.6855   35.6992    4.8334 H         1 UNK         0.0813 
    119 H119       31.0306   35.1386    4.9590 H         1 UNK         0.0813 
    120 H120       30.5785   32.6032    2.8961 H         1 UNK         0.3038 
    121 H121       31.6828   33.5931    0.2969 H         1 UNK         0.0769 
    122 H122       29.5328   32.8106   -0.6551 H         1 UNK         0.0811 
    123 H123       29.2625   34.0059    0.6009 H         1 UNK         0.0811 
    124 H124       28.9741   32.3032    0.9329 H         1 UNK         0.0811 
    125 H125       30.4855   30.6775    1.9912 H         1 UNK         0.3204 
    126 H126       32.3805   28.8951    0.5448 H         1 UNK         0.0748 
    127 H127       30.2059   28.2407    2.6258 H         1 UNK         0.0771 
    128 H128       29.9031   28.2070    0.8951 H         1 UNK         0.0771 
    129 H129       31.0529   27.0924    1.6093 H         1 UNK         0.0771 
    130 H130       33.2510   27.2044    2.2497 H         1 UNK         0.2980 
    131 H131       34.4967   26.6233    3.9500 H         1 UNK         0.0545 
    132 H132       37.0575   29.0549    5.3120 H         1 UNK         0.3459 
    133 H133       35.8037   28.1642    6.1332 H         1 UNK         0.3459 
    134 H134       33.9524   27.3499    6.2518 H         1 UNK         0.0616 
    135 H135       33.1313   28.7628    5.6596 H         1 UNK         0.0616 
    136 H136       33.3649   25.0939    6.0489 H         1 UNK         0.0634 
    137 H137       31.9827   25.1937    7.1127 H         1 UNK         0.0634 
@<TRIPOS>BOND
     1    1    2 1    
     2    1   72 1    
     3    1   73 1    
     4    1   74 1    
     5    2    3 2    
     6    2    4 am   BACKBONE|DICT|INTERRES
     7    4    5 1    
     8    4   75 1    
     9    5    6 1    
    10    5   35 1    
    11    5   76 1    
    12    6    7 1    
    13    6   77 1    
    14    6   78 1    
    15    7    8 1    
    16    8    9 1    
    17    8   79 1    
    18    8   80 1    
    19    9   10 ar   
    20    9   14 ar   
    21   10   11 ar   
    22   10   81 1    
    23   11   12 ar   
    24   11   71 1    
    25   12   13 ar   
    26   12   82 1    
    27   13   14 ar   
    28   13   15 1    
    29   14   83 1    
    30   15   16 1    
    31   15   84 1    
    32   15   85 1    
    33   16   17 1    
    34   17   18 1    
    35   17   86 1    
    36   17   87 1    
    37   18   19 1    
    38   18   37 1    
    39   18   88 1    
    40   19   20 am   BACKBONE|DICT|INTERRES
    41   19   89 1    
    42   20   21 2    
    43   20   22 1    
    44   22   23 1    
    45   22   24 1    
    46   22   90 1    
    47   23   91 1    
    48   23   92 1    
    49   23   93 1    
    50   24   25 am   BACKBONE|DICT|INTERRES
    51   24   94 1    
    52   25   26 2    
    53   25   27 1    
    54   27   28 1    
    55   27   29 1    
    56   27   95 1    
    57   28   96 1    
    58   28   97 1    
    59   28   98 1    
    60   29   30 am   BACKBONE|DICT|INTERRES
    61   29   99 1    
    62   30   31 2    
    63   30   32 1    
    64   32   33 1    
    65   32   34 1    
    66   32  100 1    
    67   33  101 1    
    68   33  102 1    
    69   33  103 1    
    70   34   35 am   BACKBONE|DICT|INTERRES
    71   34  104 1    
    72   35   36 2    
    73   37   38 2    
    74   37   39 am   BACKBONE|DICT|INTERRES
    75   39   40 1    
    76   39  105 1    
    77   40   41 1    
    78   40   42 1    
    79   40  106 1    
    80   41  107 1    
    81   41  108 1    
    82   41  109 1    
    83   42   43 2    
    84   42   44 am   BACKBONE|DICT|INTERRES
    85   44   45 1    
    86   44  110 1    
    87   45   46 1    
    88   45   47 1    
    89   45  111 1    
    90   46  112 1    
    91   46  113 1    
    92   46  114 1    
    93   47   48 2    
    94   47   49 am   BACKBONE|DICT|INTERRES
    95   49   50 1    
    96   49  115 1    
    97   50   51 1    
    98   50   52 1    
    99   50  116 1    
   100   51  117 1    
   101   51  118 1    
   102   51  119 1    
   103   52   53 2    
   104   52   54 am   BACKBONE|DICT|INTERRES
   105   54   55 1    
   106   54  120 1    
   107   55   56 1    
   108   55   57 1    
   109   55  121 1    
   110   56  122 1    
   111   56  123 1    
   112   56  124 1    
   113   57   58 2    
   114   57   59 am   BACKBONE|DICT|INTERRES
   115   59   60 1    
   116   59  125 1    
   117   60   61 1    
   118   60   62 1    
   119   60  126 1    
   120   61  127 1    
   121   61  128 1    
   122   61  129 1    
   123   62   63 2    
   124   62   64 am   BACKBONE|DICT|INTERRES
   125   64   65 1    
   126   64  130 1    
   127   65   66 1    
   128   65   69 1    
   129   65  131 1    
   130   66   67 am   BACKBONE|DICT|INTERRES
   131   66   68 2    
   132   67  132 1    
   133   67  133 1    
   134   69   70 1    
   135   69  134 1    
   136   69  135 1    
   137   70   71 1    
   138   71  136 1    
   139   71  137 1    
@<TRIPOS>SUBSTRUCTURE
     1 UNK         1 GROUP             0       ****    0 ROOT    
