@<TRIPOS>MOLECULE
3R136
137   139    1
SMALL
USER_CHARGES


@<TRIPOS>ATOM
      1 CA         29.5174   23.0373   -1.6788 C.3       0 UNK        -0.1979 
      2 C          28.9765   22.7561   -0.2856 C.2       0 UNK         0.4864 
      3 O          28.3385   21.7238   -0.0719 O.2       0 UNK        -0.5359 
      4 N          29.2124   23.6850    0.6496 N.am      1 UNK        -0.4318 
      5 CA         28.8068   23.6663    2.0597 C.3       1 UNK         0.0824 
      6 C6         29.5703   22.6215    2.9234 C.3       12 UNK        -0.0944 
      7 S7         31.3832   22.8151    2.8659 S.3       12 UNK        -0.2672 
      8 C8         31.6964   23.9408    4.2639 C.3       12 UNK         0.0333 
      9 C9         31.3450   25.3783    3.9116 C.ar      12 UNK        -0.0807 
     10 C10        32.1376   26.0783    2.9991 C.ar      12 UNK        -0.0894 
     11 C11        31.8345   27.3996    2.6503 C.ar      12 UNK        -0.0804 
     12 C12        30.7212   28.0138    3.2341 C.ar      12 UNK        -0.0824 
     13 C13        29.8994   27.3147    4.1242 C.ar      12 UNK        -0.0762 
     14 C14        30.2267   26.0009    4.4733 C.ar      12 UNK        -0.0782 
     15 C15        28.6444   27.9638    4.6936 C.3       12 UNK         0.0230 
     16 S16        27.2088   27.7366    3.5939 S.3       12 UNK        -0.2608 
     17 C17        27.4866   29.0199    2.3258 C.3       12 UNK        -0.0989 
     18 CA         27.9237   28.4251    0.9622 C.3       5 UNK         0.0716 
     19 N          26.8354   27.6899    0.3141 N.am      5 UNK        -0.4135 
     20 C          27.0095   26.6589   -0.5182 C.2       4 UNK         0.5031 
     21 O          28.0979   26.1233   -0.7414 O.2       4 UNK        -0.5229 
     22 CA         25.7679   26.1690   -1.2712 C.3       4 UNK         0.0329 
     23 CB         25.8206   26.6588   -2.7337 C.3       4 UNK        -0.2001 
     24 N          25.7166   24.7098   -1.1977 N.am      4 UNK        -0.4303 
     25 C          24.7127   23.9311   -1.6236 C.2       3 UNK         0.5044 
     26 O          23.6955   24.3551   -2.1735 O.2       3 UNK        -0.5152 
     27 CA         24.8515   22.4191   -1.3738 C.3       3 UNK         0.0319 
     28 CB         25.7517   21.7634   -2.4328 C.3       3 UNK        -0.2001 
     29 N          25.3578   22.1248   -0.0310 N.am      3 UNK        -0.4354 
     30 C          24.6234   22.2556    1.0861 C.2       2 UNK         0.4964 
     31 O          23.4277   22.5509    1.0865 O.2       2 UNK        -0.5047 
     32 CA         25.3302   22.0298    2.4357 C.3       2 UNK         0.0288 
     33 CB         25.1379   20.5803    2.9107 C.3       2 UNK        -0.2113 
     34 N          26.7602   22.3405    2.4034 N.am      2 UNK        -0.4145 
     35 C          27.2742   23.5608    2.1925 C.2       1 UNK         0.5006 
     36 O          26.5863   24.5732    2.0655 O.2       1 UNK        -0.5103 
     37 C          28.4028   29.5514    0.0249 C.2       5 UNK         0.5055 
     38 O          27.6194   30.0585   -0.7837 O.2       5 UNK        -0.5220 
     39 N          29.6678   29.9555    0.1912 N.am      6 UNK        -0.4450 
     40 CA         30.2431   31.1621   -0.4073 C.3       6 UNK         0.0367 
     41 CB         31.7519   30.9370   -0.6283 C.3       6 UNK        -0.1929 
     42 C          29.9775   32.3871    0.4920 C.2       6 UNK         0.5070 
     43 O          29.2329   32.2929    1.4710 O.2       6 UNK        -0.5237 
     44 N          30.6076   33.5218    0.1557 N.am      7 UNK        -0.4739 
     45 CA         30.5600   34.7619    0.9417 C.3       7 UNK         0.0276 
     46 CB         31.1926   35.9040    0.1300 C.3       7 UNK        -0.1927 
     47 C          31.2353   34.6413    2.3224 C.2       7 UNK         0.5013 
     48 O          30.8212   35.3282    3.2572 O.2       7 UNK        -0.5193 
     49 N          32.2434   33.7658    2.4263 N.am      8 UNK        -0.4253 
     50 CA         32.8613   33.3485    3.6825 C.3       8 UNK         0.0242 
     51 CB         34.3641   33.1142    3.4549 C.3       8 UNK        -0.2000 
     52 C          32.1869   32.0530    4.1497 C.2       8 UNK         0.4948 
     53 O          31.9740   31.1581    3.3292 O.2       8 UNK        -0.5275 
     54 N          31.8834   31.9621    5.4486 N.am      9 UNK        -0.4246 
     55 CA         31.3207   30.7635    6.0696 C.3       9 UNK         0.0261 
     56 CB         30.4629   31.1708    7.2785 C.3       9 UNK        -0.1959 
     57 C          32.4406   29.8064    6.5014 C.2       9 UNK         0.5033 
     58 O          33.4839   30.2717    6.9670 O.2       9 UNK        -0.5390 
     59 N          32.1814   28.4958    6.3713 N.am      10 UNK        -0.4215 
     60 CA         33.0608   27.3748    6.7358 C.3       10 UNK         0.0240 
     61 CB         33.1594   27.2463    8.2709 C.3       10 UNK        -0.1982 
     62 C          34.4388   27.4407    6.0462 C.2       10 UNK         0.4970 
     63 O          35.4682   27.2566    6.6995 O.2       10 UNK        -0.4916 
     64 N          34.4259   27.7390    4.7415 N.am      11 UNK        -0.4279 
     65 CA         35.6185   27.8891    3.9017 C.3       11 UNK         0.1003 
     66 C          36.4234   26.5713    3.6999 C.2       11 UNK         0.5709 
     67 N          37.6923   26.6757    3.3275 N.am      11 UNK        -0.7358 
     68 O          35.9101   25.4636    3.8521 O.2       11 UNK        -0.4999 
     69 C69        35.2728   28.6142    2.5730 C.3       12 UNK        -0.0954 
     70 S70        34.3545   27.6146    1.3490 S.3       12 UNK        -0.2268 
     71 C71        32.6300   28.1601    1.5887 C.3       12 UNK         0.0203 
     72 H72        30.4129   23.6574   -1.6383 H         1 UNK         0.0888 
     73 H73        28.7699   23.5582   -2.2764 H         1 UNK         0.0888 
     74 H74        29.7753   22.1063   -2.1831 H         1 UNK         0.0888 
     75 H75        29.6642   24.5423    0.3607 H         1 UNK         0.3017 
     76 H76        29.0562   24.6569    2.4373 H         1 UNK         0.0873 
     77 H77        29.2445   22.6714    3.9641 H         1 UNK         0.0745 
     78 H78        29.3544   21.6072    2.5843 H         1 UNK         0.0745 
     79 H79        31.1502   23.6025    5.1457 H         1 UNK         0.0705 
     80 H80        32.7551   23.8899    4.5233 H         1 UNK         0.0705 
     81 H81        32.9804   25.5719    2.5492 H         1 UNK         0.1334 
     82 H82        30.4751   29.0333    2.9732 H         1 UNK         0.1417 
     83 H83        29.5957   25.4546    5.1616 H         1 UNK         0.1562 
     84 H84        28.8003   29.0265    4.8781 H         1 UNK         0.0748 
     85 H85        28.4082   27.5240    5.6638 H         1 UNK         0.0748 
     86 H86        28.2225   29.7340    2.7003 H         1 UNK         0.0940 
     87 H87        26.5646   29.5936    2.2133 H         1 UNK         0.0940 
     88 H88        28.7618   27.7451    1.1313 H         1 UNK         0.0703 
     89 H89        25.9158   28.0944    0.4069 H         1 UNK         0.3081 
     90 H90        24.8734   26.5670   -0.7878 H         1 UNK         0.0719 
     91 H91        26.6543   26.2106   -3.2757 H         1 UNK         0.0809 
     92 H92        24.9046   26.4258   -3.2757 H         1 UNK         0.0809 
     93 H93        25.9484   27.7415   -2.7778 H         1 UNK         0.0809 
     94 H94        26.5029   24.2871   -0.7233 H         1 UNK         0.2990 
     95 H95        23.8576   21.9755   -1.4672 H         1 UNK         0.0690 
     96 H96        25.8106   20.6843   -2.2892 H         1 UNK         0.0788 
     97 H97        26.7662   22.1589   -2.4084 H         1 UNK         0.0788 
     98 H98        25.3599   21.9360   -3.4361 H         1 UNK         0.0788 
     99 H99        26.3388   21.8712    0.0491 H         1 UNK         0.2993 
    100 H100       24.8611   22.6962    3.1631 H         1 UNK         0.0949 
    101 H101       25.6059   19.8672    2.2307 H         1 UNK         0.0767 
    102 H102       25.5623   20.4280    3.9034 H         1 UNK         0.0767 
    103 H103       24.0784   20.3269    2.9707 H         1 UNK         0.0767 
    104 H104       27.3946   21.5552    2.4339 H         1 UNK         0.3013 
    105 H105       30.2214   29.5213    0.9125 H         1 UNK         0.3121 
    106 H106       29.7749   31.3466   -1.3766 H         1 UNK         0.0774 
    107 H107       32.1795   31.7143   -1.2621 H         1 UNK         0.0815 
    108 H108       31.9455   29.9864   -1.1257 H         1 UNK         0.0815 
    109 H109       32.3056   30.9452    0.3108 H         1 UNK         0.0815 
    110 H110       31.1864   33.5319   -0.6721 H         1 UNK         0.2987 
    111 H111       29.5098   35.0073    1.1162 H         1 UNK         0.0949 
    112 H112       30.6688   36.0590   -0.8135 H         1 UNK         0.0806 
    113 H113       31.1475   36.8447    0.6809 H         1 UNK         0.0806 
    114 H114       32.2419   35.7086   -0.0946 H         1 UNK         0.0806 
    115 H115       32.4621   33.2028    1.6179 H         1 UNK         0.3010 
    116 H116       32.7379   34.1233    4.4425 H         1 UNK         0.0829 
    117 H117       34.8541   32.8045    4.3790 H         1 UNK         0.0813 
    118 H118       34.5454   32.3344    2.7137 H         1 UNK         0.0813 
    119 H119       34.8594   34.0232    3.1133 H         1 UNK         0.0813 
    120 H120       32.1472   32.7113    6.0724 H         1 UNK         0.3038 
    121 H121       30.6777   30.2594    5.3474 H         1 UNK         0.0769 
    122 H122       31.0544   31.6785    8.0417 H         1 UNK         0.0811 
    123 H123       30.0078   30.2973    7.7473 H         1 UNK         0.0811 
    124 H124       29.6526   31.8377    6.9829 H         1 UNK         0.0811 
    125 H125       31.2979   28.2267    5.9622 H         1 UNK         0.3204 
    126 H126       32.5814   26.4688    6.3633 H         1 UNK         0.0748 
    127 H127       33.7230   26.3565    8.5544 H         1 UNK         0.0771 
    128 H128       33.6609   28.1058    8.7172 H         1 UNK         0.0771 
    129 H129       32.1724   27.1612    8.7256 H         1 UNK         0.0771 
    130 H130       33.5394   27.8319    4.2679 H         1 UNK         0.2980 
    131 H131       36.2796   28.5588    4.4556 H         1 UNK         0.0545 
    132 H132       38.2288   25.8350    3.1809 H         1 UNK         0.3459 
    133 H133       38.1240   27.5758    3.1875 H         1 UNK         0.3459 
    134 H134       36.1951   28.9402    2.0898 H         1 UNK         0.0616 
    135 H135       34.7222   29.5331    2.7812 H         1 UNK         0.0616 
    136 H136       32.6281   29.2257    1.8070 H         1 UNK         0.0634 
    137 H137       32.1112   28.0391    0.6372 H         1 UNK         0.0634 
@<TRIPOS>BOND
     1    1    2 1    
     2    1   72 1    
     3    1   73 1    
     4    1   74 1    
     5    2    3 2    
     6    2    4 am   BACKBONE|DICT|INTERRES
     7    4    5 1    
     8    4   75 1    
     9    5    6 1    
    10    5   35 1    
    11    5   76 1    
    12    6    7 1    
    13    6   77 1    
    14    6   78 1    
    15    7    8 1    
    16    8    9 1    
    17    8   79 1    
    18    8   80 1    
    19    9   10 ar   
    20    9   14 ar   
    21   10   11 ar   
    22   10   81 1    
    23   11   12 ar   
    24   11   71 1    
    25   12   13 ar   
    26   12   82 1    
    27   13   14 ar   
    28   13   15 1    
    29   14   83 1    
    30   15   16 1    
    31   15   84 1    
    32   15   85 1    
    33   16   17 1    
    34   17   18 1    
    35   17   86 1    
    36   17   87 1    
    37   18   19 1    
    38   18   37 1    
    39   18   88 1    
    40   19   20 am   BACKBONE|DICT|INTERRES
    41   19   89 1    
    42   20   21 2    
    43   20   22 1    
    44   22   23 1    
    45   22   24 1    
    46   22   90 1    
    47   23   91 1    
    48   23   92 1    
    49   23   93 1    
    50   24   25 am   BACKBONE|DICT|INTERRES
    51   24   94 1    
    52   25   26 2    
    53   25   27 1    
    54   27   28 1    
    55   27   29 1    
    56   27   95 1    
    57   28   96 1    
    58   28   97 1    
    59   28   98 1    
    60   29   30 am   BACKBONE|DICT|INTERRES
    61   29   99 1    
    62   30   31 2    
    63   30   32 1    
    64   32   33 1    
    65   32   34 1    
    66   32  100 1    
    67   33  101 1    
    68   33  102 1    
    69   33  103 1    
    70   34   35 am   BACKBONE|DICT|INTERRES
    71   34  104 1    
    72   35   36 2    
    73   37   38 2    
    74   37   39 am   BACKBONE|DICT|INTERRES
    75   39   40 1    
    76   39  105 1    
    77   40   41 1    
    78   40   42 1    
    79   40  106 1    
    80   41  107 1    
    81   41  108 1    
    82   41  109 1    
    83   42   43 2    
    84   42   44 am   BACKBONE|DICT|INTERRES
    85   44   45 1    
    86   44  110 1    
    87   45   46 1    
    88   45   47 1    
    89   45  111 1    
    90   46  112 1    
    91   46  113 1    
    92   46  114 1    
    93   47   48 2    
    94   47   49 am   BACKBONE|DICT|INTERRES
    95   49   50 1    
    96   49  115 1    
    97   50   51 1    
    98   50   52 1    
    99   50  116 1    
   100   51  117 1    
   101   51  118 1    
   102   51  119 1    
   103   52   53 2    
   104   52   54 am   BACKBONE|DICT|INTERRES
   105   54   55 1    
   106   54  120 1    
   107   55   56 1    
   108   55   57 1    
   109   55  121 1    
   110   56  122 1    
   111   56  123 1    
   112   56  124 1    
   113   57   58 2    
   114   57   59 am   BACKBONE|DICT|INTERRES
   115   59   60 1    
   116   59  125 1    
   117   60   61 1    
   118   60   62 1    
   119   60  126 1    
   120   61  127 1    
   121   61  128 1    
   122   61  129 1    
   123   62   63 2    
   124   62   64 am   BACKBONE|DICT|INTERRES
   125   64   65 1    
   126   64  130 1    
   127   65   66 1    
   128   65   69 1    
   129   65  131 1    
   130   66   67 am   BACKBONE|DICT|INTERRES
   131   66   68 2    
   132   67  132 1    
   133   67  133 1    
   134   69   70 1    
   135   69  134 1    
   136   69  135 1    
   137   70   71 1    
   138   71  136 1    
   139   71  137 1    
@<TRIPOS>SUBSTRUCTURE
     1 UNK         1 GROUP             0       ****    0 ROOT    
