@<TRIPOS>MOLECULE
3R136
137   139    1
SMALL
USER_CHARGES


@<TRIPOS>ATOM
      1 CA         34.8092   26.7735   -2.0390 C.3       0 UNK        -0.1979 
      2 C          33.3814   26.9056   -1.5319 C.2       0 UNK         0.4864 
      3 O          32.9675   28.0088   -1.1675 O.2       0 UNK        -0.5359 
      4 N          32.6353   25.7897   -1.4981 N.am      1 UNK        -0.4318 
      5 CA         31.2260   25.7293   -1.0934 C.3       1 UNK         0.0824 
      6 C6         30.7364   24.2709   -0.8839 C.3       12 UNK        -0.0944 
      7 S7         29.6734   24.1287    0.5920 S.3       12 UNK        -0.2672 
      8 C8         30.8927   23.5998    1.8375 C.3       12 UNK         0.0333 
      9 C9         30.3149   23.6925    3.2411 C.ar      12 UNK        -0.0807 
     10 C10        30.5357   24.8354    4.0163 C.ar      12 UNK        -0.0894 
     11 C11        29.9714   24.9493    5.2900 C.ar      12 UNK        -0.0804 
     12 C12        29.1837   23.9078    5.7879 C.ar      12 UNK        -0.0824 
     13 C13        28.9447   22.7646    5.0178 C.ar      12 UNK        -0.0762 
     14 C14        29.5347   22.6509    3.7541 C.ar      12 UNK        -0.0782 
     15 C15        27.9863   21.6914    5.5209 C.3       12 UNK         0.0230 
     16 S16        26.3593   21.7759    4.6866 S.3       12 UNK        -0.2608 
     17 C17        25.8834   23.5195    4.9546 C.3       12 UNK        -0.0989 
     18 CA         26.3176   24.3978    3.7459 C.3       5 UNK         0.0716 
     19 N          25.4277   24.3105    2.5909 N.am      5 UNK        -0.4135 
     20 C          24.1845   24.7868    2.4770 C.2       4 UNK         0.5031 
     21 O          23.5522   25.3195    3.3909 O.2       4 UNK        -0.5229 
     22 CA         23.5665   24.6730    1.0697 C.3       4 UNK         0.0329 
     23 CB         22.0299   24.5885    1.1192 C.3       4 UNK        -0.2001 
     24 N          23.9535   25.7933    0.2065 N.am      4 UNK        -0.4303 
     25 C          25.1977   26.0939   -0.1929 C.2       3 UNK         0.5044 
     26 O          26.1939   25.4249    0.0945 O.2       3 UNK        -0.5152 
     27 CA         25.3498   27.3456   -1.0677 C.3       3 UNK         0.0319 
     28 CB         24.6401   28.5781   -0.4689 C.3       3 UNK        -0.2001 
     29 N          26.7712   27.6283   -1.2571 N.am      3 UNK        -0.4354 
     30 C          27.2963   28.2755   -2.3033 C.2       2 UNK         0.4964 
     31 O          26.6241   28.7276   -3.2314 O.2       2 UNK        -0.5047 
     32 CA         28.8193   28.4630   -2.3356 C.3       2 UNK         0.0288 
     33 CB         29.1956   29.8446   -1.7714 C.3       2 UNK        -0.2113 
     34 N          29.5320   27.4425   -1.5663 N.am      2 UNK        -0.4145 
     35 C          30.3510   26.5234   -2.0879 C.2       1 UNK         0.5006 
     36 O          30.4737   26.3156   -3.2985 O.2       1 UNK        -0.5103 
     37 C          26.6701   25.8561    4.1013 C.2       5 UNK         0.5055 
     38 O          26.4573   26.3018    5.2309 O.2       5 UNK        -0.5220 
     39 N          27.2519   26.5561    3.1222 N.am      6 UNK        -0.4450 
     40 CA         27.9597   27.8181    3.2942 C.3       6 UNK         0.0367 
     41 CB         26.9912   29.0048    3.1707 C.3       6 UNK        -0.1929 
     42 C          29.0371   27.8695    2.2104 C.2       6 UNK         0.5070 
     43 O          28.7613   27.4653    1.0779 O.2       6 UNK        -0.5237 
     44 N          30.2264   28.3701    2.5550 N.am      7 UNK        -0.4739 
     45 CA         31.3244   28.6000    1.6177 C.3       7 UNK         0.0276 
     46 CB         32.5791   27.8406    2.0877 C.3       7 UNK        -0.1927 
     47 C          31.5753   30.1013    1.4607 C.2       7 UNK         0.5013 
     48 O          31.0922   30.8921    2.2752 O.2       7 UNK        -0.5193 
     49 N          32.2982   30.4584    0.3908 N.am      8 UNK        -0.4253 
     50 CA         32.5955   31.8268   -0.0460 C.3       8 UNK         0.0242 
     51 CB         33.3763   31.7590   -1.3710 C.3       8 UNK        -0.2000 
     52 C          33.3390   32.6564    1.0204 C.2       8 UNK         0.4948 
     53 O          34.5711   32.6879    1.0243 O.2       8 UNK        -0.5275 
     54 N          32.5593   33.2819    1.9161 N.am      9 UNK        -0.4246 
     55 CA         32.9721   34.0371    3.1052 C.3       9 UNK         0.0261 
     56 CB         33.6726   35.3515    2.6984 C.3       9 UNK        -0.1959 
     57 C          33.8018   33.1924    4.0952 C.2       9 UNK         0.5033 
     58 O          34.7493   33.7093    4.6925 O.2       9 UNK        -0.5390 
     59 N          33.4513   31.9072    4.2432 N.am      10 UNK        -0.4215 
     60 CA         34.2133   30.9254    5.0133 C.3       10 UNK         0.0240 
     61 CB         35.4295   30.4628    4.1801 C.3       10 UNK        -0.1982 
     62 C          33.3303   29.7326    5.4033 C.2       10 UNK         0.4970 
     63 O          32.1674   29.6577    5.0001 O.2       10 UNK        -0.4916 
     64 N          33.9298   28.8014    6.1490 N.am      11 UNK        -0.4279 
     65 CA         33.4263   27.4600    6.4498 C.3       11 UNK         0.1003 
     66 C          34.6179   26.5492    6.8539 C.2       11 UNK         0.5709 
     67 N          34.4986   25.2418    6.6726 N.am      11 UNK        -0.7358 
     68 O          35.6511   27.0186    7.3308 O.2       11 UNK        -0.4999 
     69 C69        32.2767   27.4732    7.4957 C.3       12 UNK        -0.0954 
     70 S70        31.3171   25.9226    7.4928 S.3       12 UNK        -0.2268 
     71 C71        30.1730   26.2140    6.1108 C.3       12 UNK         0.0203 
     72 H72        34.9545   27.4066   -2.9139 H         1 UNK         0.0888 
     73 H73        35.5104   27.0913   -1.2680 H         1 UNK         0.0888 
     74 H74        35.0512   25.7480   -2.3171 H         1 UNK         0.0888 
     75 H75        33.0284   24.9264   -1.8438 H         1 UNK         0.3017 
     76 H76        31.1857   26.2303   -0.1280 H         1 UNK         0.0873 
     77 H77        30.1915   23.8935   -1.7517 H         1 UNK         0.0745 
     78 H78        31.5795   23.5898   -0.7570 H         1 UNK         0.0745 
     79 H79        31.2074   22.5766    1.6269 H         1 UNK         0.0705 
     80 H80        31.7860   24.2217    1.7591 H         1 UNK         0.0705 
     81 H81        31.1294   25.6463    3.6190 H         1 UNK         0.1334 
     82 H82        28.7271   24.0080    6.7632 H         1 UNK         0.1417 
     83 H83        29.3398   21.7764    3.1478 H         1 UNK         0.1562 
     84 H84        27.8399   21.7807    6.5985 H         1 UNK         0.0748 
     85 H85        28.4217   20.7054    5.3529 H         1 UNK         0.0748 
     86 H86        26.3381   23.8510    5.8891 H         1 UNK         0.0940 
     87 H87        24.8067   23.5815    5.1179 H         1 UNK         0.0940 
     88 H88        27.2566   24.0025    3.3652 H         1 UNK         0.0703 
     89 H89        25.8699   23.9983    1.7350 H         1 UNK         0.3081 
     90 H90        23.9338   23.7515    0.6125 H         1 UNK         0.0719 
     91 H91        21.5849   25.5026    1.5146 H         1 UNK         0.0809 
     92 H92        21.6094   24.4115    0.1291 H         1 UNK         0.0809 
     93 H93        21.7059   23.7662    1.7587 H         1 UNK         0.0809 
     94 H94        23.2059   26.4122   -0.0711 H         1 UNK         0.2990 
     95 H95        24.9041   27.1118   -2.0368 H         1 UNK         0.0690 
     96 H96        24.8341   29.4754   -1.0568 H         1 UNK         0.0788 
     97 H97        24.9652   28.7736    0.5520 H         1 UNK         0.0788 
     98 H98        23.5582   28.4458   -0.4476 H         1 UNK         0.0788 
     99 H99        27.3805   27.2418   -0.5425 H         1 UNK         0.2993 
    100 H100       29.1245   28.4312   -3.3839 H         1 UNK         0.0949 
    101 H101       28.6914   30.6426   -2.3182 H         1 UNK         0.0767 
    102 H102       28.9185   29.9407   -0.7205 H         1 UNK         0.0767 
    103 H103       30.2680   30.0241   -1.8520 H         1 UNK         0.0767 
    104 H104       29.4002   27.4729   -0.5549 H         1 UNK         0.3013 
    105 H105       27.3899   26.1297    2.2112 H         1 UNK         0.3121 
    106 H106       28.4373   27.8369    4.2757 H         1 UNK         0.0774 
    107 H107       26.1873   28.9423    3.9041 H         1 UNK         0.0815 
    108 H108       27.5122   29.9486    3.3362 H         1 UNK         0.0815 
    109 H109       26.5414   29.0516    2.1800 H         1 UNK         0.0815 
    110 H110       30.3573   28.7789    3.4722 H         1 UNK         0.2987 
    111 H111       31.0567   28.2527    0.6232 H         1 UNK         0.0949 
    112 H112       33.4594   28.1208    1.5084 H         1 UNK         0.0806 
    113 H113       32.8090   28.0285    3.1329 H         1 UNK         0.0806 
    114 H114       32.4508   26.7657    1.9674 H         1 UNK         0.0806 
    115 H115       32.6478   29.7124   -0.2068 H         1 UNK         0.3010 
    116 H116       31.6435   32.3212   -0.2507 H         1 UNK         0.0829 
    117 H117       32.7937   31.2666   -2.1500 H         1 UNK         0.0813 
    118 H118       33.6220   32.7586   -1.7322 H         1 UNK         0.0813 
    119 H119       34.3133   31.2116   -1.2596 H         1 UNK         0.0813 
    120 H120       31.5671   33.0873    1.8598 H         1 UNK         0.3038 
    121 H121       32.0546   34.3019    3.6327 H         1 UNK         0.0769 
    122 H122       34.6302   35.1648    2.2111 H         1 UNK         0.0811 
    123 H123       33.8681   35.9774    3.5700 H         1 UNK         0.0811 
    124 H124       33.0562   35.9349    2.0146 H         1 UNK         0.0811 
    125 H125       32.6247   31.5458    3.7748 H         1 UNK         0.3204 
    126 H126       34.5599   31.3902    5.9389 H         1 UNK         0.0748 
    127 H127       36.0696   31.3022    3.9075 H         1 UNK         0.0771 
    128 H128       36.0544   29.7577    4.7290 H         1 UNK         0.0771 
    129 H129       35.1165   29.9746    3.2558 H         1 UNK         0.0771 
    130 H130       34.8882   28.9395    6.4438 H         1 UNK         0.2980 
    131 H131       33.0387   27.0655    5.5083 H         1 UNK         0.0545 
    132 H132       35.2629   24.6381    6.9311 H         1 UNK         0.3459 
    133 H133       33.6406   24.8463    6.3205 H         1 UNK         0.3459 
    134 H134       31.5846   28.2942    7.3036 H         1 UNK         0.0616 
    135 H135       32.6693   27.6451    8.4993 H         1 UNK         0.0616 
    136 H136       30.5493   27.0176    5.4757 H         1 UNK         0.0634 
    137 H137       29.2151   26.5577    6.5040 H         1 UNK         0.0634 
@<TRIPOS>BOND
     1    1    2 1    
     2    1   72 1    
     3    1   73 1    
     4    1   74 1    
     5    2    3 2    
     6    2    4 am   BACKBONE|DICT|INTERRES
     7    4    5 1    
     8    4   75 1    
     9    5    6 1    
    10    5   35 1    
    11    5   76 1    
    12    6    7 1    
    13    6   77 1    
    14    6   78 1    
    15    7    8 1    
    16    8    9 1    
    17    8   79 1    
    18    8   80 1    
    19    9   10 ar   
    20    9   14 ar   
    21   10   11 ar   
    22   10   81 1    
    23   11   12 ar   
    24   11   71 1    
    25   12   13 ar   
    26   12   82 1    
    27   13   14 ar   
    28   13   15 1    
    29   14   83 1    
    30   15   16 1    
    31   15   84 1    
    32   15   85 1    
    33   16   17 1    
    34   17   18 1    
    35   17   86 1    
    36   17   87 1    
    37   18   19 1    
    38   18   37 1    
    39   18   88 1    
    40   19   20 am   BACKBONE|DICT|INTERRES
    41   19   89 1    
    42   20   21 2    
    43   20   22 1    
    44   22   23 1    
    45   22   24 1    
    46   22   90 1    
    47   23   91 1    
    48   23   92 1    
    49   23   93 1    
    50   24   25 am   BACKBONE|DICT|INTERRES
    51   24   94 1    
    52   25   26 2    
    53   25   27 1    
    54   27   28 1    
    55   27   29 1    
    56   27   95 1    
    57   28   96 1    
    58   28   97 1    
    59   28   98 1    
    60   29   30 am   BACKBONE|DICT|INTERRES
    61   29   99 1    
    62   30   31 2    
    63   30   32 1    
    64   32   33 1    
    65   32   34 1    
    66   32  100 1    
    67   33  101 1    
    68   33  102 1    
    69   33  103 1    
    70   34   35 am   BACKBONE|DICT|INTERRES
    71   34  104 1    
    72   35   36 2    
    73   37   38 2    
    74   37   39 am   BACKBONE|DICT|INTERRES
    75   39   40 1    
    76   39  105 1    
    77   40   41 1    
    78   40   42 1    
    79   40  106 1    
    80   41  107 1    
    81   41  108 1    
    82   41  109 1    
    83   42   43 2    
    84   42   44 am   BACKBONE|DICT|INTERRES
    85   44   45 1    
    86   44  110 1    
    87   45   46 1    
    88   45   47 1    
    89   45  111 1    
    90   46  112 1    
    91   46  113 1    
    92   46  114 1    
    93   47   48 2    
    94   47   49 am   BACKBONE|DICT|INTERRES
    95   49   50 1    
    96   49  115 1    
    97   50   51 1    
    98   50   52 1    
    99   50  116 1    
   100   51  117 1    
   101   51  118 1    
   102   51  119 1    
   103   52   53 2    
   104   52   54 am   BACKBONE|DICT|INTERRES
   105   54   55 1    
   106   54  120 1    
   107   55   56 1    
   108   55   57 1    
   109   55  121 1    
   110   56  122 1    
   111   56  123 1    
   112   56  124 1    
   113   57   58 2    
   114   57   59 am   BACKBONE|DICT|INTERRES
   115   59   60 1    
   116   59  125 1    
   117   60   61 1    
   118   60   62 1    
   119   60  126 1    
   120   61  127 1    
   121   61  128 1    
   122   61  129 1    
   123   62   63 2    
   124   62   64 am   BACKBONE|DICT|INTERRES
   125   64   65 1    
   126   64  130 1    
   127   65   66 1    
   128   65   69 1    
   129   65  131 1    
   130   66   67 am   BACKBONE|DICT|INTERRES
   131   66   68 2    
   132   67  132 1    
   133   67  133 1    
   134   69   70 1    
   135   69  134 1    
   136   69  135 1    
   137   70   71 1    
   138   71  136 1    
   139   71  137 1    
@<TRIPOS>SUBSTRUCTURE
     1 UNK         1 GROUP             0       ****    0 ROOT    
