@<TRIPOS>MOLECULE
3R136
137   139    1
SMALL
USER_CHARGES


@<TRIPOS>ATOM
      1 CA         27.2763   22.8851    4.3519 C.3       0 UNK        -0.1979 
      2 C          26.9300   22.1350    3.0764 C.2       0 UNK         0.4864 
      3 O          25.7734   21.7565    2.8865 O.2       0 UNK        -0.5359 
      4 N          27.9233   21.9084    2.2050 N.am      1 UNK        -0.4318 
      5 CA         27.7601   21.2113    0.9240 C.3       1 UNK         0.0824 
      6 C6         29.1152   20.7216    0.3449 C.3       12 UNK        -0.0944 
      7 S7         30.3133   22.0593   -0.0211 S.3       12 UNK        -0.2672 
      8 C8         31.6983   21.7020    1.1056 C.3       12 UNK         0.0333 
      9 C9         32.0968   22.9524    1.8716 C.ar      12 UNK        -0.0807 
     10 C10        33.0762   23.8154    1.3676 C.ar      12 UNK        -0.0894 
     11 C11        33.4295   24.9715    2.0716 C.ar      12 UNK        -0.0804 
     12 C12        32.7937   25.2617    3.2823 C.ar      12 UNK        -0.0824 
     13 C13        31.8131   24.4071    3.7924 C.ar      12 UNK        -0.0762 
     14 C14        31.4760   23.2498    3.0874 C.ar      12 UNK        -0.0782 
     15 C15        31.1131   24.7233    5.1038 C.3       12 UNK         0.0230 
     16 S16        29.5437   25.5980    4.8193 S.3       12 UNK        -0.2608 
     17 C17        30.1136   27.3207    4.6455 C.3       12 UNK        -0.0989 
     18 CA         29.3808   28.1354    3.5529 C.3       5 UNK         0.0716 
     19 N          29.5977   27.6450    2.1893 N.am      5 UNK        -0.4135 
     20 C          30.6126   28.0517    1.4162 C.2       4 UNK         0.5031 
     21 O          31.6099   28.6311    1.8454 O.2       4 UNK        -0.5229 
     22 CA         30.4893   27.8264   -0.1047 C.3       4 UNK         0.0329 
     23 CB         31.2419   26.5504   -0.5152 C.3       4 UNK        -0.2001 
     24 N          29.1183   27.7511   -0.6245 N.am      4 UNK        -0.4303 
     25 C          28.0990   28.5954   -0.3953 C.2       3 UNK         0.5044 
     26 O          28.1801   29.6142    0.2863 O.2       3 UNK        -0.5152 
     27 CA         26.7204   28.2041   -0.9597 C.3       3 UNK         0.0319 
     28 CB         26.4320   28.9987   -2.2431 C.3       3 UNK        -0.2001 
     29 N          26.5365   26.7727   -1.2321 N.am      3 UNK        -0.4354 
     30 C          26.7669   25.7515   -0.3932 C.2       2 UNK         0.4964 
     31 O          27.1715   25.8920    0.7683 O.2       2 UNK        -0.5047 
     32 CA         26.5628   24.3476   -0.9830 C.3       2 UNK         0.0288 
     33 CB         27.2468   24.2047   -2.3647 C.3       2 UNK        -0.2113 
     34 N          27.1091   23.3702   -0.0497 N.am      2 UNK        -0.4145 
     35 C          26.9680   22.0400   -0.1104 C.2       1 UNK         0.5006 
     36 O          26.2638   21.4593   -0.9392 O.2       1 UNK        -0.5103 
     37 C          27.8934   28.3840    3.8752 C.2       5 UNK         0.5055 
     38 O          27.6177   29.0584    4.8687 O.2       5 UNK        -0.5220 
     39 N          26.9493   27.8798    3.0604 N.am      6 UNK        -0.4450 
     40 CA         25.5156   28.1146    3.2650 C.3       6 UNK         0.0367 
     41 CB         24.6992   27.0866    2.4650 C.3       6 UNK        -0.1929 
     42 C          25.0611   29.5484    2.9270 C.2       6 UNK         0.5070 
     43 O          24.0078   29.9602    3.4145 O.2       6 UNK        -0.5237 
     44 N          25.8286   30.2812    2.1064 N.am      7 UNK        -0.4739 
     45 CA         25.4967   31.6373    1.6581 C.3       7 UNK         0.0276 
     46 CB         24.6001   31.5629    0.4055 C.3       7 UNK        -0.1927 
     47 C          26.7540   32.4983    1.4382 C.2       7 UNK         0.5013 
     48 O          26.7245   33.4170    0.6170 O.2       7 UNK        -0.5193 
     49 N          27.8349   32.2024    2.1687 N.am      8 UNK        -0.4253 
     50 CA         29.1274   32.8810    2.0943 C.3       8 UNK         0.0242 
     51 CB         29.9010   32.4139    0.8436 C.3       8 UNK        -0.2000 
     52 C          29.9207   32.5700    3.3683 C.2       8 UNK         0.4948 
     53 O          29.5125   31.7052    4.1478 O.2       8 UNK        -0.5275 
     54 N          31.0543   33.2596    3.5479 N.am      9 UNK        -0.4246 
     55 CA         32.0533   32.9300    4.5663 C.3       9 UNK         0.0261 
     56 CB         33.0375   34.1014    4.7195 C.3       9 UNK        -0.1959 
     57 C          32.7936   31.6406    4.1723 C.2       9 UNK         0.5033 
     58 O          33.1824   31.5040    3.0093 O.2       9 UNK        -0.5390 
     59 N          32.9655   30.7297    5.1385 N.am      10 UNK        -0.4215 
     60 CA         33.5669   29.4091    4.9409 C.3       10 UNK         0.0240 
     61 CB         33.3883   28.5757    6.2215 C.3       10 UNK        -0.1982 
     62 C          35.0513   29.4702    4.5417 C.2       10 UNK         0.4970 
     63 O          35.7721   30.3782    4.9618 O.2       10 UNK        -0.4916 
     64 N          35.4750   28.4649    3.7697 N.am      11 UNK        -0.4279 
     65 CA         36.8509   28.2588    3.2934 C.3       11 UNK         0.1003 
     66 C          37.8814   27.8345    4.3831 C.2       11 UNK         0.5709 
     67 N          37.4681   27.4809    5.5946 N.am      11 UNK        -0.7358 
     68 O          39.0829   27.8408    4.1250 O.2       11 UNK        -0.4999 
     69 C69        36.8754   27.3109    2.0613 C.3       12 UNK        -0.0954 
     70 S70        36.0774   25.6944    2.3693 S.3       12 UNK        -0.2268 
     71 C71        34.4818   25.9234    1.5253 C.3       12 UNK         0.0203 
     72 H72        28.3464   22.8616    4.5539 H         1 UNK         0.0888 
     73 H73        26.9611   23.9254    4.2725 H         1 UNK         0.0888 
     74 H74        26.7664   22.4381    5.2049 H         1 UNK         0.0888 
     75 H75        28.8509   22.2568    2.3940 H         1 UNK         0.3017 
     76 H76        27.1593   20.3202    1.1202 H         1 UNK         0.0873 
     77 H77        29.5592   19.9984    1.0295 H         1 UNK         0.0745 
     78 H78        28.9455   20.1654   -0.5792 H         1 UNK         0.0745 
     79 H79        31.4413   20.9093    1.8089 H         1 UNK         0.0705 
     80 H80        32.5423   21.3284    0.5238 H         1 UNK         0.0705 
     81 H81        33.5574   23.5898    0.4256 H         1 UNK         0.1334 
     82 H82        33.0646   26.1541    3.8268 H         1 UNK         0.1417 
     83 H83        30.7252   22.5828    3.4862 H         1 UNK         0.1562 
     84 H84        31.7577   25.3122    5.7585 H         1 UNK         0.0748 
     85 H85        30.9046   23.7968    5.6408 H         1 UNK         0.0748 
     86 H86        31.1807   27.3325    4.4328 H         1 UNK         0.0940 
     87 H87        30.0076   27.8118    5.6146 H         1 UNK         0.0940 
     88 H88        29.8108   29.1386    3.5934 H         1 UNK         0.0703 
     89 H89        28.8574   27.1069    1.7626 H         1 UNK         0.3081 
     90 H90        30.9640   28.6795   -0.5931 H         1 UNK         0.0719 
     91 H91        32.2888   26.6077   -0.2186 H         1 UNK         0.0809 
     92 H92        31.2243   26.4030   -1.5951 H         1 UNK         0.0809 
     93 H93        30.8183   25.6610   -0.0453 H         1 UNK         0.0809 
     94 H94        28.9139   26.9437   -1.1937 H         1 UNK         0.2990 
     95 H95        25.9783   28.4899   -0.2135 H         1 UNK         0.0690 
     96 H96        25.4026   28.8597   -2.5740 H         1 UNK         0.0788 
     97 H97        27.0920   28.7006   -3.0588 H         1 UNK         0.0788 
     98 H98        26.5771   30.0686   -2.0855 H         1 UNK         0.0788 
     99 H99        26.2145   26.5461   -2.1622 H         1 UNK         0.2993 
    100 H100       25.4890   24.1760   -1.0803 H         1 UNK         0.0949 
    101 H101       26.8202   24.8835   -3.1035 H         1 UNK         0.0767 
    102 H102       28.3167   24.4097   -2.3045 H         1 UNK         0.0767 
    103 H103       27.1294   23.2009   -2.7724 H         1 UNK         0.0767 
    104 H104       27.6546   23.7766    0.6999 H         1 UNK         0.3013 
    105 H105       27.1897   27.2721    2.2871 H         1 UNK         0.3121 
    106 H106       25.2974   27.9507    4.3228 H         1 UNK         0.0774 
    107 H107       23.6372   27.1695    2.6997 H         1 UNK         0.0815 
    108 H108       24.8014   27.2320    1.3906 H         1 UNK         0.0815 
    109 H109       25.0025   26.0657    2.6984 H         1 UNK         0.0815 
    110 H110       26.6869   29.8915    1.7289 H         1 UNK         0.2987 
    111 H111       24.9357   32.1455    2.4455 H         1 UNK         0.0949 
    112 H112       23.6953   30.9855    0.5956 H         1 UNK         0.0806 
    113 H113       24.2834   32.5565    0.0863 H         1 UNK         0.0806 
    114 H114       25.1231   31.1012   -0.4315 H         1 UNK         0.0806 
    115 H115       27.7868   31.4834    2.8809 H         1 UNK         0.3010 
    116 H116       28.9608   33.9593    2.0474 H         1 UNK         0.0829 
    117 H117       29.3262   32.5706   -0.0691 H         1 UNK         0.0813 
    118 H118       30.8388   32.9583    0.7297 H         1 UNK         0.0813 
    119 H119       30.1481   31.3528    0.9019 H         1 UNK         0.0813 
    120 H120       31.3357   33.9254    2.8430 H         1 UNK         0.3038 
    121 H121       31.5421   32.7793    5.5199 H         1 UNK         0.0769 
    122 H122       33.5764   34.3008    3.7922 H         1 UNK         0.0811 
    123 H123       33.7816   33.8860    5.4875 H         1 UNK         0.0811 
    124 H124       32.5236   35.0167    5.0139 H         1 UNK         0.0811 
    125 H125       32.6498   30.9464    6.0726 H         1 UNK         0.3204 
    126 H126       33.0160   28.9254    4.1319 H         1 UNK         0.0748 
    127 H127       33.7608   27.5595    6.0862 H         1 UNK         0.0771 
    128 H128       33.9287   29.0115    7.0632 H         1 UNK         0.0771 
    129 H129       32.3386   28.4968    6.5042 H         1 UNK         0.0771 
    130 H130       34.8214   27.7485    3.4962 H         1 UNK         0.2980 
    131 H131       37.2026   29.2313    2.9439 H         1 UNK         0.0545 
    132 H132       36.4874   27.4732    5.8195 H         1 UNK         0.3459 
    133 H133       38.1486   27.2151    6.2886 H         1 UNK         0.3459 
    134 H134       36.3832   27.7967    1.2173 H         1 UNK         0.0616 
    135 H135       37.8998   27.1320    1.7295 H         1 UNK         0.0616 
    136 H136       34.1323   26.9495    1.6497 H         1 UNK         0.0634 
    137 H137       34.6218   25.7745    0.4536 H         1 UNK         0.0634 
@<TRIPOS>BOND
     1    1    2 1    
     2    1   72 1    
     3    1   73 1    
     4    1   74 1    
     5    2    3 2    
     6    2    4 am   BACKBONE|DICT|INTERRES
     7    4    5 1    
     8    4   75 1    
     9    5    6 1    
    10    5   35 1    
    11    5   76 1    
    12    6    7 1    
    13    6   77 1    
    14    6   78 1    
    15    7    8 1    
    16    8    9 1    
    17    8   79 1    
    18    8   80 1    
    19    9   10 ar   
    20    9   14 ar   
    21   10   11 ar   
    22   10   81 1    
    23   11   12 ar   
    24   11   71 1    
    25   12   13 ar   
    26   12   82 1    
    27   13   14 ar   
    28   13   15 1    
    29   14   83 1    
    30   15   16 1    
    31   15   84 1    
    32   15   85 1    
    33   16   17 1    
    34   17   18 1    
    35   17   86 1    
    36   17   87 1    
    37   18   19 1    
    38   18   37 1    
    39   18   88 1    
    40   19   20 am   BACKBONE|DICT|INTERRES
    41   19   89 1    
    42   20   21 2    
    43   20   22 1    
    44   22   23 1    
    45   22   24 1    
    46   22   90 1    
    47   23   91 1    
    48   23   92 1    
    49   23   93 1    
    50   24   25 am   BACKBONE|DICT|INTERRES
    51   24   94 1    
    52   25   26 2    
    53   25   27 1    
    54   27   28 1    
    55   27   29 1    
    56   27   95 1    
    57   28   96 1    
    58   28   97 1    
    59   28   98 1    
    60   29   30 am   BACKBONE|DICT|INTERRES
    61   29   99 1    
    62   30   31 2    
    63   30   32 1    
    64   32   33 1    
    65   32   34 1    
    66   32  100 1    
    67   33  101 1    
    68   33  102 1    
    69   33  103 1    
    70   34   35 am   BACKBONE|DICT|INTERRES
    71   34  104 1    
    72   35   36 2    
    73   37   38 2    
    74   37   39 am   BACKBONE|DICT|INTERRES
    75   39   40 1    
    76   39  105 1    
    77   40   41 1    
    78   40   42 1    
    79   40  106 1    
    80   41  107 1    
    81   41  108 1    
    82   41  109 1    
    83   42   43 2    
    84   42   44 am   BACKBONE|DICT|INTERRES
    85   44   45 1    
    86   44  110 1    
    87   45   46 1    
    88   45   47 1    
    89   45  111 1    
    90   46  112 1    
    91   46  113 1    
    92   46  114 1    
    93   47   48 2    
    94   47   49 am   BACKBONE|DICT|INTERRES
    95   49   50 1    
    96   49  115 1    
    97   50   51 1    
    98   50   52 1    
    99   50  116 1    
   100   51  117 1    
   101   51  118 1    
   102   51  119 1    
   103   52   53 2    
   104   52   54 am   BACKBONE|DICT|INTERRES
   105   54   55 1    
   106   54  120 1    
   107   55   56 1    
   108   55   57 1    
   109   55  121 1    
   110   56  122 1    
   111   56  123 1    
   112   56  124 1    
   113   57   58 2    
   114   57   59 am   BACKBONE|DICT|INTERRES
   115   59   60 1    
   116   59  125 1    
   117   60   61 1    
   118   60   62 1    
   119   60  126 1    
   120   61  127 1    
   121   61  128 1    
   122   61  129 1    
   123   62   63 2    
   124   62   64 am   BACKBONE|DICT|INTERRES
   125   64   65 1    
   126   64  130 1    
   127   65   66 1    
   128   65   69 1    
   129   65  131 1    
   130   66   67 am   BACKBONE|DICT|INTERRES
   131   66   68 2    
   132   67  132 1    
   133   67  133 1    
   134   69   70 1    
   135   69  134 1    
   136   69  135 1    
   137   70   71 1    
   138   71  136 1    
   139   71  137 1    
@<TRIPOS>SUBSTRUCTURE
     1 UNK         1 GROUP             0       ****    0 ROOT    
