@<TRIPOS>MOLECULE
3R136
137   139    1
SMALL
USER_CHARGES


@<TRIPOS>ATOM
      1 CA         32.4295   19.6350   -3.3115 C.3       0 UNK        -0.1979 
      2 C          32.5326   20.7916   -2.3278 C.2       0 UNK         0.4864 
      3 O          33.6369   21.2658   -2.0558 O.2       0 UNK        -0.5359 
      4 N          31.3929   21.2427   -1.7874 N.am      1 UNK        -0.4318 
      5 CA         31.2958   22.3892   -0.8792 C.3       1 UNK         0.0824 
      6 C6         29.9521   22.3729   -0.1121 C.3       12 UNK        -0.0944 
      7 S7         29.9861   23.4291    1.3744 S.3       12 UNK        -0.2672 
      8 C8         29.6434   22.2516    2.7179 C.3       12 UNK         0.0333 
      9 C9         28.9715   22.9685    3.8777 C.ar      12 UNK        -0.0807 
     10 C10        29.7193   23.7813    4.7335 C.ar      12 UNK        -0.0894 
     11 C11        29.0943   24.4955    5.7601 C.ar      12 UNK        -0.0804 
     12 C12        27.7131   24.3722    5.9459 C.ar      12 UNK        -0.0824 
     13 C13        26.9560   23.5561    5.0975 C.ar      12 UNK        -0.0762 
     14 C14        27.5921   22.8537    4.0697 C.ar      12 UNK        -0.0782 
     15 C15        25.4469   23.4467    5.2633 C.3       12 UNK         0.0230 
     16 S16        24.5594   24.3102    3.9243 S.3       12 UNK        -0.2608 
     17 C17        24.8175   26.0592    4.3757 C.3       12 UNK        -0.0989 
     18 CA         26.0606   26.6925    3.6943 C.3       5 UNK         0.0716 
     19 N          26.0432   26.6236    2.2237 N.am      5 UNK        -0.4135 
     20 C          25.1668   27.1556    1.3644 C.2       4 UNK         0.5031 
     21 O          24.2456   27.9004    1.7031 O.2       4 UNK        -0.5229 
     22 CA         25.3926   26.8355   -0.1277 C.3       4 UNK         0.0329 
     23 CB         24.2353   27.3285   -1.0169 C.3       4 UNK        -0.2001 
     24 N          26.6495   27.3971   -0.6340 N.am      4 UNK        -0.4303 
     25 C          27.8700   26.9047   -0.3880 C.2       3 UNK         0.5044 
     26 O          28.0738   25.9140    0.3159 O.2       3 UNK        -0.5152 
     27 CA         29.0520   27.6560   -1.0105 C.3       3 UNK         0.0319 
     28 CB         29.3157   28.9779   -0.2651 C.3       3 UNK        -0.2001 
     29 N          30.2452   26.8102   -0.9669 N.am      3 UNK        -0.4354 
     30 C          31.3188   26.9574   -1.7539 C.2       2 UNK         0.4964 
     31 O          31.4099   27.8273   -2.6213 O.2       2 UNK        -0.5047 
     32 CA         32.5004   25.9889   -1.5577 C.3       2 UNK         0.0288 
     33 CB         33.5943   26.6301   -0.6869 C.3       2 UNK        -0.2113 
     34 N          32.1367   24.6915   -0.9836 N.am      2 UNK        -0.4145 
     35 C          31.5072   23.7134   -1.6479 C.2       1 UNK         0.5006 
     36 O          31.1003   23.8239   -2.8083 O.2       1 UNK        -0.5103 
     37 C          26.3498   28.0892    4.2884 C.2       5 UNK         0.5055 
     38 O          26.8312   28.1605    5.4201 O.2       5 UNK        -0.5220 
     39 N          26.0698   29.1702    3.5502 N.am      6 UNK        -0.4450 
     40 CA         26.4812   30.5345    3.8787 C.3       6 UNK         0.0367 
     41 CB         25.7757   31.5164    2.9297 C.3       6 UNK        -0.1929 
     42 C          28.0058   30.6743    3.7557 C.2       6 UNK         0.5070 
     43 O          28.5910   30.1199    2.8239 O.2       6 UNK        -0.5237 
     44 N          28.6244   31.4440    4.6583 N.am      7 UNK        -0.4739 
     45 CA         30.0776   31.6381    4.7458 C.3       7 UNK         0.0276 
     46 CB         30.4358   32.0857    6.1749 C.3       7 UNK        -0.1927 
     47 C          30.6532   32.5831    3.6663 C.2       7 UNK         0.5013 
     48 O          31.5231   33.4052    3.9620 O.2       7 UNK        -0.5193 
     49 N          30.1725   32.4523    2.4248 N.am      8 UNK        -0.4253 
     50 CA         30.6064   33.2034    1.2474 C.3       8 UNK         0.0242 
     51 CB         29.4732   33.1809    0.2045 C.3       8 UNK        -0.2000 
     52 C          31.9210   32.6163    0.7066 C.2       8 UNK         0.4948 
     53 O          31.9067   31.9079   -0.3010 O.2       8 UNK        -0.5275 
     54 N          33.0192   32.8833    1.4309 N.am      9 UNK        -0.4246 
     55 CA         34.3533   32.2854    1.2723 C.3       9 UNK         0.0261 
     56 CB         34.9976   32.6924   -0.0706 C.3       9 UNK        -0.1959 
     57 C          34.3139   30.7595    1.4947 C.2       9 UNK         0.5033 
     58 O          34.8732   29.9947    0.7062 O.2       9 UNK        -0.5390 
     59 N          33.6238   30.3550    2.5659 N.am      10 UNK        -0.4215 
     60 CA         33.3485   28.9769    2.9519 C.3       10 UNK         0.0240 
     61 CB         32.0521   28.5116    2.2614 C.3       10 UNK        -0.1982 
     62 C          33.1975   28.9222    4.4762 C.2       10 UNK         0.4970 
     63 O          33.0440   29.9696    5.1101 O.2       10 UNK        -0.4916 
     64 N          33.2150   27.7014    5.0234 N.am      11 UNK        -0.4279 
     65 CA         32.9552   27.3843    6.4413 C.3       11 UNK         0.1003 
     66 C          34.0314   27.9023    7.4450 C.2       11 UNK         0.5709 
     67 N          35.2200   28.2902    6.9980 N.am      11 UNK        -0.7358 
     68 O          33.8042   27.9189    8.6528 O.2       11 UNK        -0.4999 
     69 C69        31.5016   27.7295    6.8878 C.3       12 UNK        -0.0954 
     70 S70        30.2328   26.9999    5.7985 S.3       12 UNK        -0.2268 
     71 C71        29.9170   25.4203    6.6427 C.3       12 UNK         0.0203 
     72 H72        31.3994   19.3061   -3.4480 H         1 UNK         0.0888 
     73 H73        32.8214   19.9335   -4.2834 H         1 UNK         0.0888 
     74 H74        33.0117   18.7857   -2.9549 H         1 UNK         0.0888 
     75 H75        30.5146   20.8365   -2.0763 H         1 UNK         0.3017 
     76 H76        32.1040   22.2846   -0.1512 H         1 UNK         0.0873 
     77 H77        29.1268   22.6922   -0.7521 H         1 UNK         0.0745 
     78 H78        29.7146   21.3520    0.1901 H         1 UNK         0.0745 
     79 H79        29.0026   21.4448    2.3593 H         1 UNK         0.0705 
     80 H80        30.5754   21.7891    3.0459 H         1 UNK         0.0705 
     81 H81        30.7841   23.8876    4.5763 H         1 UNK         0.1334 
     82 H82        27.2254   24.9336    6.7312 H         1 UNK         0.1417 
     83 H83        27.0038   22.2394    3.4012 H         1 UNK         0.1562 
     84 H84        25.1270   23.8351    6.2314 H         1 UNK         0.0748 
     85 H85        25.1623   22.3936    5.2503 H         1 UNK         0.0748 
     86 H86        24.8966   26.1268    5.4627 H         1 UNK         0.0940 
     87 H87        23.9161   26.6146    4.1107 H         1 UNK         0.0940 
     88 H88        26.9301   26.0968    3.9687 H         1 UNK         0.0703 
     89 H89        26.8121   26.1026    1.8100 H         1 UNK         0.3081 
     90 H90        25.4361   25.7478   -0.2186 H         1 UNK         0.0719 
     91 H91        24.1406   28.4150   -0.9942 H         1 UNK         0.0809 
     92 H92        24.3746   27.0248   -2.0546 H         1 UNK         0.0809 
     93 H93        23.2834   26.9115   -0.6849 H         1 UNK         0.0809 
     94 H94        26.5707   28.2341   -1.1937 H         1 UNK         0.2990 
     95 H95        28.8033   27.8671   -2.0527 H         1 UNK         0.0690 
     96 H96        30.1398   29.5365   -0.7098 H         1 UNK         0.0788 
     97 H97        29.5639   28.7952    0.7797 H         1 UNK         0.0788 
     98 H98        28.4407   29.6285   -0.2805 H         1 UNK         0.0788 
     99 H99        30.1928   26.0416   -0.3087 H         1 UNK         0.2993 
    100 H100       32.9253   25.8109   -2.5484 H         1 UNK         0.0949 
    101 H101       33.8473   27.6314   -1.0401 H         1 UNK         0.0767 
    102 H102       33.2822   26.7209    0.3529 H         1 UNK         0.0767 
    103 H103       34.5110   26.0406   -0.7082 H         1 UNK         0.0767 
    104 H104       32.4080   24.5283   -0.0244 H         1 UNK         0.3013 
    105 H105       25.6116   29.0221    2.6588 H         1 UNK         0.3121 
    106 H106       26.1792   30.7509    4.9056 H         1 UNK         0.0774 
    107 H107       26.0452   32.5473    3.1633 H         1 UNK         0.0815 
    108 H108       26.0476   31.3367    1.8885 H         1 UNK         0.0815 
    109 H109       24.6915   31.4384    3.0116 H         1 UNK         0.0815 
    110 H110       28.0685   31.9067    5.3637 H         1 UNK         0.2987 
    111 H111       30.5483   30.6665    4.5832 H         1 UNK         0.0949 
    112 H112       31.5173   32.1507    6.3042 H         1 UNK         0.0806 
    113 H113       30.0175   33.0654    6.4084 H         1 UNK         0.0806 
    114 H114       30.0708   31.3748    6.9163 H         1 UNK         0.0806 
    115 H115       29.5185   31.6894    2.2690 H         1 UNK         0.3010 
    116 H116       30.7870   34.2436    1.5276 H         1 UNK         0.0829 
    117 H117       28.5691   33.6507    0.5922 H         1 UNK         0.0813 
    118 H118       29.7614   33.7247   -0.6960 H         1 UNK         0.0813 
    119 H119       29.2184   32.1635   -0.0954 H         1 UNK         0.0813 
    120 H120       32.8827   33.4356    2.2711 H         1 UNK         0.3038 
    121 H121       34.9732   32.6957    2.0710 H         1 UNK         0.0769 
    122 H122       34.4678   32.2661   -0.9230 H         1 UNK         0.0811 
    123 H123       36.0300   32.3451   -0.1267 H         1 UNK         0.0811 
    124 H124       35.0127   33.7754   -0.1918 H         1 UNK         0.0811 
    125 H125       33.2735   31.0419    3.2222 H         1 UNK         0.3204 
    126 H126       34.1831   28.3377    2.6561 H         1 UNK         0.0748 
    127 H127       32.1079   28.6387    1.1801 H         1 UNK         0.0771 
    128 H128       31.8513   27.4577    2.4570 H         1 UNK         0.0771 
    129 H129       31.1878   29.0769    2.6129 H         1 UNK         0.0771 
    130 H130       33.3612   26.9026    4.4240 H         1 UNK         0.2980 
    131 H131       33.0484   26.2996    6.5016 H         1 UNK         0.0545 
    132 H132       35.9131   28.6120    7.6549 H         1 UNK         0.3459 
    133 H133       35.4256   28.2747    6.0124 H         1 UNK         0.3459 
    134 H134       31.3162   27.3891    7.9080 H         1 UNK         0.0616 
    135 H135       31.3535   28.8104    6.9007 H         1 UNK         0.0616 
    136 H136       30.8653   24.9408    6.8901 H         1 UNK         0.0634 
    137 H137       29.4059   25.6107    7.5876 H         1 UNK         0.0634 
@<TRIPOS>BOND
     1    1    2 1    
     2    1   72 1    
     3    1   73 1    
     4    1   74 1    
     5    2    3 2    
     6    2    4 am   BACKBONE|DICT|INTERRES
     7    4    5 1    
     8    4   75 1    
     9    5    6 1    
    10    5   35 1    
    11    5   76 1    
    12    6    7 1    
    13    6   77 1    
    14    6   78 1    
    15    7    8 1    
    16    8    9 1    
    17    8   79 1    
    18    8   80 1    
    19    9   10 ar   
    20    9   14 ar   
    21   10   11 ar   
    22   10   81 1    
    23   11   12 ar   
    24   11   71 1    
    25   12   13 ar   
    26   12   82 1    
    27   13   14 ar   
    28   13   15 1    
    29   14   83 1    
    30   15   16 1    
    31   15   84 1    
    32   15   85 1    
    33   16   17 1    
    34   17   18 1    
    35   17   86 1    
    36   17   87 1    
    37   18   19 1    
    38   18   37 1    
    39   18   88 1    
    40   19   20 am   BACKBONE|DICT|INTERRES
    41   19   89 1    
    42   20   21 2    
    43   20   22 1    
    44   22   23 1    
    45   22   24 1    
    46   22   90 1    
    47   23   91 1    
    48   23   92 1    
    49   23   93 1    
    50   24   25 am   BACKBONE|DICT|INTERRES
    51   24   94 1    
    52   25   26 2    
    53   25   27 1    
    54   27   28 1    
    55   27   29 1    
    56   27   95 1    
    57   28   96 1    
    58   28   97 1    
    59   28   98 1    
    60   29   30 am   BACKBONE|DICT|INTERRES
    61   29   99 1    
    62   30   31 2    
    63   30   32 1    
    64   32   33 1    
    65   32   34 1    
    66   32  100 1    
    67   33  101 1    
    68   33  102 1    
    69   33  103 1    
    70   34   35 am   BACKBONE|DICT|INTERRES
    71   34  104 1    
    72   35   36 2    
    73   37   38 2    
    74   37   39 am   BACKBONE|DICT|INTERRES
    75   39   40 1    
    76   39  105 1    
    77   40   41 1    
    78   40   42 1    
    79   40  106 1    
    80   41  107 1    
    81   41  108 1    
    82   41  109 1    
    83   42   43 2    
    84   42   44 am   BACKBONE|DICT|INTERRES
    85   44   45 1    
    86   44  110 1    
    87   45   46 1    
    88   45   47 1    
    89   45  111 1    
    90   46  112 1    
    91   46  113 1    
    92   46  114 1    
    93   47   48 2    
    94   47   49 am   BACKBONE|DICT|INTERRES
    95   49   50 1    
    96   49  115 1    
    97   50   51 1    
    98   50   52 1    
    99   50  116 1    
   100   51  117 1    
   101   51  118 1    
   102   51  119 1    
   103   52   53 2    
   104   52   54 am   BACKBONE|DICT|INTERRES
   105   54   55 1    
   106   54  120 1    
   107   55   56 1    
   108   55   57 1    
   109   55  121 1    
   110   56  122 1    
   111   56  123 1    
   112   56  124 1    
   113   57   58 2    
   114   57   59 am   BACKBONE|DICT|INTERRES
   115   59   60 1    
   116   59  125 1    
   117   60   61 1    
   118   60   62 1    
   119   60  126 1    
   120   61  127 1    
   121   61  128 1    
   122   61  129 1    
   123   62   63 2    
   124   62   64 am   BACKBONE|DICT|INTERRES
   125   64   65 1    
   126   64  130 1    
   127   65   66 1    
   128   65   69 1    
   129   65  131 1    
   130   66   67 am   BACKBONE|DICT|INTERRES
   131   66   68 2    
   132   67  132 1    
   133   67  133 1    
   134   69   70 1    
   135   69  134 1    
   136   69  135 1    
   137   70   71 1    
   138   71  136 1    
   139   71  137 1    
@<TRIPOS>SUBSTRUCTURE
     1 UNK         1 GROUP             0       ****    0 ROOT    
