@<TRIPOS>MOLECULE
3R136
137   139    1
SMALL
USER_CHARGES


@<TRIPOS>ATOM
      1 CA         29.8764   23.0494    4.1939 C.3       0 UNK        -0.1979 
      2 C          29.1004   22.1900    3.2099 C.2       0 UNK         0.4864 
      3 O          27.9623   21.8120    3.4898 O.2       0 UNK        -0.5359 
      4 N          29.7108   21.8746    2.0588 N.am      1 UNK        -0.4318 
      5 CA         29.1351   21.0020    1.0241 C.3       1 UNK         0.0824 
      6 C6         30.1957   20.4309    0.0416 C.3       12 UNK        -0.0944 
      7 S7         31.6898   19.7594    0.8617 S.3       12 UNK        -0.2672 
      8 C8         33.0058   20.9047    0.3175 C.3       12 UNK         0.0333 
      9 C9         32.7854   22.3094    0.8591 C.ar      12 UNK        -0.0807 
     10 C10        33.2402   22.6626    2.1340 C.ar      12 UNK        -0.0894 
     11 C11        32.9588   23.9267    2.6674 C.ar      12 UNK        -0.0804 
     12 C12        32.1965   24.8283    1.9138 C.ar      12 UNK        -0.0824 
     13 C13        31.7425   24.4825    0.6380 C.ar      12 UNK        -0.0762 
     14 C14        32.0761   23.2414    0.0997 C.ar      12 UNK        -0.0782 
     15 C15        30.7888   25.3901   -0.1138 C.3       12 UNK         0.0230 
     16 S16        31.6046   26.7680   -0.9655 S.3       12 UNK        -0.2608 
     17 C17        30.1131   27.6142   -1.6223 C.3       12 UNK        -0.0989 
     18 CA         29.4536   28.7548   -0.7771 C.3       5 UNK         0.0716 
     19 N          27.9881   28.7055   -0.8310 N.am      5 UNK        -0.4135 
     20 C          27.1778   29.7103   -0.4655 C.2       4 UNK         0.5031 
     21 O          27.5726   30.8105   -0.0782 O.2       4 UNK        -0.5229 
     22 CA         25.6695   29.4177   -0.4977 C.3       4 UNK         0.0329 
     23 CB         25.1338   29.4523   -1.9382 C.3       4 UNK        -0.2001 
     24 N          25.3249   28.1388    0.1308 N.am      4 UNK        -0.4303 
     25 C          25.5019   27.8641    1.4314 C.2       3 UNK         0.5044 
     26 O          25.9949   28.6508    2.2388 O.2       3 UNK        -0.5152 
     27 CA         25.0789   26.4663    1.9122 C.3       3 UNK         0.0319 
     28 CB         23.5764   26.4400    2.2348 C.3       3 UNK        -0.2001 
     29 N          25.4009   25.3818    0.9778 N.am      3 UNK        -0.4354 
     30 C          26.6419   25.0555    0.5941 C.2       2 UNK         0.4964 
     31 O          27.6461   25.7051    0.8925 O.2       2 UNK        -0.5047 
     32 CA         26.7961   23.8029   -0.2730 C.3       2 UNK         0.0288 
     33 CB         27.0898   24.1728   -1.7372 C.3       2 UNK        -0.2113 
     34 N          27.8892   23.0067    0.2792 N.am      2 UNK        -0.4145 
     35 C          27.9712   21.6682    0.2512 C.2       1 UNK         0.5006 
     36 O          27.1655   20.9526   -0.3469 O.2       1 UNK        -0.5103 
     37 C          29.9336   28.8727    0.6839 C.2       5 UNK         0.5055 
     38 O          30.8082   29.6933    0.9630 O.2       5 UNK        -0.5220 
     39 N          29.3285   28.0869    1.5896 N.am      6 UNK        -0.4450 
     40 CA         29.6613   28.0709    3.0125 C.3       6 UNK         0.0367 
     41 CB         28.9002   26.9425    3.7228 C.3       6 UNK        -0.1929 
     42 C          29.4129   29.4227    3.6925 C.2       6 UNK         0.5070 
     43 O          30.2863   29.8914    4.4212 O.2       6 UNK        -0.5237 
     44 N          28.2609   30.0423    3.4022 N.am      7 UNK        -0.4739 
     45 CA         27.8997   31.3819    3.8666 C.3       7 UNK         0.0276 
     46 CB         26.4292   31.6666    3.5224 C.3       7 UNK        -0.1927 
     47 C          28.8121   32.4802    3.2969 C.2       7 UNK         0.5013 
     48 O          29.2115   33.3724    4.0454 O.2       7 UNK        -0.5193 
     49 N          29.1330   32.3942    1.9972 N.am      8 UNK        -0.4253 
     50 CA         30.0028   33.3441    1.2987 C.3       8 UNK         0.0242 
     51 CB         29.9185   33.1110   -0.2184 C.3       8 UNK        -0.2000 
     52 C          31.4632   33.2889    1.7758 C.2       8 UNK         0.4948 
     53 O          32.0590   34.3394    2.0177 O.2       8 UNK        -0.5275 
     54 N          32.0137   32.0739    1.8996 N.am      9 UNK        -0.4246 
     55 CA         33.3993   31.8367    2.3116 C.3       9 UNK         0.0261 
     56 CB         33.8490   30.4663    1.7773 C.3       9 UNK        -0.1959 
     57 C          33.6154   31.9057    3.8334 C.2       9 UNK         0.5033 
     58 O          34.7674   32.0099    4.2571 O.2       9 UNK        -0.5390 
     59 N          32.5311   31.8044    4.6193 N.am      10 UNK        -0.4215 
     60 CA         32.5066   31.5952    6.0747 C.3       10 UNK         0.0240 
     61 CB         33.0892   32.8067    6.8341 C.3       10 UNK        -0.1982 
     62 C          33.1660   30.2524    6.4523 C.2       10 UNK         0.4970 
     63 O          33.9912   30.1939    7.3662 O.2       10 UNK        -0.4916 
     64 N          32.8099   29.2078    5.6953 N.am      11 UNK        -0.4279 
     65 CA         33.3502   27.8486    5.8080 C.3       11 UNK         0.1003 
     66 C          32.8050   27.0953    7.0521 C.2       11 UNK         0.5709 
     67 N          33.5888   26.1911    7.6230 N.am      11 UNK        -0.7358 
     68 O          31.6702   27.2964    7.4814 O.2       11 UNK        -0.4999 
     69 C69        33.1092   27.0602    4.4926 C.3       12 UNK        -0.0954 
     70 S70        34.3968   25.8082    4.1673 S.3       12 UNK        -0.2268 
     71 C71        33.4200   24.2720    4.0825 C.3       12 UNK         0.0203 
     72 H72        30.2039   23.9733    3.7227 H         1 UNK         0.0888 
     73 H73        29.2581   23.3110    5.0524 H         1 UNK         0.0888 
     74 H74        30.7523   22.5124    4.5571 H         1 UNK         0.0888 
     75 H75        30.6590   22.1855    1.8887 H         1 UNK         0.3017 
     76 H76        28.6992   20.1472    1.5464 H         1 UNK         0.0873 
     77 H77        29.7519   19.6141   -0.5307 H         1 UNK         0.0745 
     78 H78        30.4825   21.1696   -0.7047 H         1 UNK         0.0745 
     79 H79        33.9693   20.5245    0.6603 H         1 UNK         0.0705 
     80 H80        33.0530   20.9147   -0.7726 H         1 UNK         0.0705 
     81 H81        33.7905   21.9394    2.7208 H         1 UNK         0.1334 
     82 H82        31.9300   25.7908    2.3237 H         1 UNK         0.1417 
     83 H83        31.7286   22.9814   -0.8905 H         1 UNK         0.1562 
     84 H84        30.0790   25.7882    0.6033 H         1 UNK         0.0748 
     85 H85        30.2067   24.8148   -0.8348 H         1 UNK         0.0748 
     86 H86        29.3772   26.8426   -1.8520 H         1 UNK         0.0940 
     87 H87        30.3843   28.0194   -2.5985 H         1 UNK         0.0940 
     88 H88        29.7457   29.6955   -1.2499 H         1 UNK         0.0703 
     89 H89        27.5693   27.8274   -1.0977 H         1 UNK         0.3081 
     90 H90        25.1714   30.2088    0.0672 H         1 UNK         0.0719 
     91 H91        25.3744   30.4011   -2.4201 H         1 UNK         0.0809 
     92 H92        25.5592   28.6577   -2.5523 H         1 UNK         0.0809 
     93 H93        24.0488   29.3478   -1.9593 H         1 UNK         0.0809 
     94 H94        24.9107   27.4302   -0.4569 H         1 UNK         0.2990 
     95 H95        25.6232   26.2668    2.8376 H         1 UNK         0.0690 
     96 H96        23.3159   27.2277    2.9436 H         1 UNK         0.0788 
     97 H97        23.2839   25.4921    2.6871 H         1 UNK         0.0788 
     98 H98        22.9668   26.5897    1.3428 H         1 UNK         0.0788 
     99 H99        24.6286   24.8057    0.6743 H         1 UNK         0.2993 
    100 H100       25.8696   23.2259   -0.2272 H         1 UNK         0.0949 
    101 H101       26.2804   24.7695   -2.1596 H         1 UNK         0.0767 
    102 H102       28.0081   24.7516   -1.8332 H         1 UNK         0.0767 
    103 H103       27.1919   23.2815   -2.3565 H         1 UNK         0.0767 
    104 H104       28.5562   23.5276    0.8322 H         1 UNK         0.3013 
    105 H105       28.6176   27.4304    1.2819 H         1 UNK         0.3121 
    106 H106       30.7283   27.8616    3.0826 H         1 UNK         0.0774 
    107 H107       29.0887   25.9798    3.2502 H         1 UNK         0.0815 
    108 H108       29.2075   26.8620    4.7664 H         1 UNK         0.0815 
    109 H109       27.8234   27.1120    3.7104 H         1 UNK         0.0815 
    110 H110       27.5760   29.5599    2.8244 H         1 UNK         0.2987 
    111 H111       28.0058   31.3966    4.9536 H         1 UNK         0.0949 
    112 H112       26.2510   31.6221    2.4469 H         1 UNK         0.0806 
    113 H113       25.7651   30.9454    3.9990 H         1 UNK         0.0806 
    114 H114       26.1311   32.6586    3.8645 H         1 UNK         0.0806 
    115 H115       28.7308   31.6464    1.4407 H         1 UNK         0.3010 
    116 H116       29.6280   34.3491    1.5047 H         1 UNK         0.0829 
    117 H117       30.2388   32.1050   -0.4914 H         1 UNK         0.0813 
    118 H118       28.9003   33.2468   -0.5834 H         1 UNK         0.0813 
    119 H119       30.5530   33.8148   -0.7588 H         1 UNK         0.0813 
    120 H120       31.4697   31.2518    1.6366 H         1 UNK         0.3038 
    121 H121       34.0349   32.6000    1.8575 H         1 UNK         0.0769 
    122 H122       33.2515   29.6566    2.1965 H         1 UNK         0.0811 
    123 H123       34.8915   30.2675    2.0297 H         1 UNK         0.0811 
    124 H124       33.7622   30.4153    0.6918 H         1 UNK         0.0811 
    125 H125       31.6375   31.6760    4.1599 H         1 UNK         0.3204 
    126 H126       31.4553   31.5095    6.3537 H         1 UNK         0.0748 
    127 H127       32.9476   32.6946    7.9096 H         1 UNK         0.0771 
    128 H128       34.1590   32.9239    6.6599 H         1 UNK         0.0771 
    129 H129       32.5972   33.7329    6.5369 H         1 UNK         0.0771 
    130 H130       32.0380   29.3407    5.0496 H         1 UNK         0.2980 
    131 H131       34.4280   27.9649    5.9411 H         1 UNK         0.0545 
    132 H132       34.5102   26.0017    7.2604 H         1 UNK         0.3459 
    133 H133       33.2497   25.6830    8.4244 H         1 UNK         0.3459 
    134 H134       33.1315   27.7364    3.6372 H         1 UNK         0.0616 
    135 H135       32.1170   26.6069    4.4896 H         1 UNK         0.0616 
    136 H136       32.5590   24.3381    4.7481 H         1 UNK         0.0634 
    137 H137       34.0418   23.4683    4.4795 H         1 UNK         0.0634 
@<TRIPOS>BOND
     1    1    2 1    
     2    1   72 1    
     3    1   73 1    
     4    1   74 1    
     5    2    3 2    
     6    2    4 am   BACKBONE|DICT|INTERRES
     7    4    5 1    
     8    4   75 1    
     9    5    6 1    
    10    5   35 1    
    11    5   76 1    
    12    6    7 1    
    13    6   77 1    
    14    6   78 1    
    15    7    8 1    
    16    8    9 1    
    17    8   79 1    
    18    8   80 1    
    19    9   10 ar   
    20    9   14 ar   
    21   10   11 ar   
    22   10   81 1    
    23   11   12 ar   
    24   11   71 1    
    25   12   13 ar   
    26   12   82 1    
    27   13   14 ar   
    28   13   15 1    
    29   14   83 1    
    30   15   16 1    
    31   15   84 1    
    32   15   85 1    
    33   16   17 1    
    34   17   18 1    
    35   17   86 1    
    36   17   87 1    
    37   18   19 1    
    38   18   37 1    
    39   18   88 1    
    40   19   20 am   BACKBONE|DICT|INTERRES
    41   19   89 1    
    42   20   21 2    
    43   20   22 1    
    44   22   23 1    
    45   22   24 1    
    46   22   90 1    
    47   23   91 1    
    48   23   92 1    
    49   23   93 1    
    50   24   25 am   BACKBONE|DICT|INTERRES
    51   24   94 1    
    52   25   26 2    
    53   25   27 1    
    54   27   28 1    
    55   27   29 1    
    56   27   95 1    
    57   28   96 1    
    58   28   97 1    
    59   28   98 1    
    60   29   30 am   BACKBONE|DICT|INTERRES
    61   29   99 1    
    62   30   31 2    
    63   30   32 1    
    64   32   33 1    
    65   32   34 1    
    66   32  100 1    
    67   33  101 1    
    68   33  102 1    
    69   33  103 1    
    70   34   35 am   BACKBONE|DICT|INTERRES
    71   34  104 1    
    72   35   36 2    
    73   37   38 2    
    74   37   39 am   BACKBONE|DICT|INTERRES
    75   39   40 1    
    76   39  105 1    
    77   40   41 1    
    78   40   42 1    
    79   40  106 1    
    80   41  107 1    
    81   41  108 1    
    82   41  109 1    
    83   42   43 2    
    84   42   44 am   BACKBONE|DICT|INTERRES
    85   44   45 1    
    86   44  110 1    
    87   45   46 1    
    88   45   47 1    
    89   45  111 1    
    90   46  112 1    
    91   46  113 1    
    92   46  114 1    
    93   47   48 2    
    94   47   49 am   BACKBONE|DICT|INTERRES
    95   49   50 1    
    96   49  115 1    
    97   50   51 1    
    98   50   52 1    
    99   50  116 1    
   100   51  117 1    
   101   51  118 1    
   102   51  119 1    
   103   52   53 2    
   104   52   54 am   BACKBONE|DICT|INTERRES
   105   54   55 1    
   106   54  120 1    
   107   55   56 1    
   108   55   57 1    
   109   55  121 1    
   110   56  122 1    
   111   56  123 1    
   112   56  124 1    
   113   57   58 2    
   114   57   59 am   BACKBONE|DICT|INTERRES
   115   59   60 1    
   116   59  125 1    
   117   60   61 1    
   118   60   62 1    
   119   60  126 1    
   120   61  127 1    
   121   61  128 1    
   122   61  129 1    
   123   62   63 2    
   124   62   64 am   BACKBONE|DICT|INTERRES
   125   64   65 1    
   126   64  130 1    
   127   65   66 1    
   128   65   69 1    
   129   65  131 1    
   130   66   67 am   BACKBONE|DICT|INTERRES
   131   66   68 2    
   132   67  132 1    
   133   67  133 1    
   134   69   70 1    
   135   69  134 1    
   136   69  135 1    
   137   70   71 1    
   138   71  136 1    
   139   71  137 1    
@<TRIPOS>SUBSTRUCTURE
     1 UNK         1 GROUP             0       ****    0 ROOT    
