@<TRIPOS>MOLECULE
3R136
137   139    1
SMALL
USER_CHARGES


@<TRIPOS>ATOM
      1 CA         30.5494   22.1770   -4.3902 C.3       0 UNK        -0.1979 
      2 C          30.0867   23.4970   -5.0026 C.2       0 UNK         0.4864 
      3 O          30.1621   23.6432   -6.2216 O.2       0 UNK        -0.5359 
      4 N          29.6174   24.4925   -4.2335 N.am      1 UNK        -0.4318 
      5 CA         29.3900   24.5261   -2.7829 C.3       1 UNK         0.0824 
      6 C6         30.6819   24.3482   -1.9389 C.3       12 UNK        -0.0944 
      7 S7         30.5381   25.1246   -0.2938 S.3       12 UNK        -0.2672 
      8 C8         30.9124   23.7153    0.7913 C.3       12 UNK         0.0333 
      9 C9         30.9234   24.1304    2.2545 C.ar      12 UNK        -0.0807 
     10 C10        31.9729   24.9073    2.7531 C.ar      12 UNK        -0.0894 
     11 C11        32.0038   25.2818    4.0996 C.ar      12 UNK        -0.0804 
     12 C12        30.9778   24.8675    4.9540 C.ar      12 UNK        -0.0824 
     13 C13        29.9151   24.1022    4.4631 C.ar      12 UNK        -0.0762 
     14 C14        29.8959   23.7319    3.1140 C.ar      12 UNK        -0.0782 
     15 C15        28.7808   23.6789    5.3839 C.3       12 UNK         0.0230 
     16 S16        27.2224   24.5167    4.9561 S.3       12 UNK        -0.2608 
     17 C17        27.5322   26.2304    5.5124 C.3       12 UNK        -0.0989 
     18 CA         28.1399   27.1500    4.4199 C.3       5 UNK         0.0716 
     19 N          27.4297   27.0583    3.1475 N.am      5 UNK        -0.4135 
     20 C          27.8053   27.6083    1.9870 C.2       4 UNK         0.5031 
     21 O          28.7949   28.3375    1.8613 O.2       4 UNK        -0.5229 
     22 CA         26.9240   27.2676    0.7665 C.3       4 UNK         0.0329 
     23 CB         27.5413   27.7274   -0.5660 C.3       4 UNK        -0.2001 
     24 N          26.6343   25.8312    0.6794 N.am      4 UNK        -0.4303 
     25 C          25.6906   25.1798    1.3745 C.2       3 UNK         0.5044 
     26 O          24.9504   25.7371    2.1869 O.2       3 UNK        -0.5152 
     27 CA         25.5905   23.6566    1.1522 C.3       3 UNK         0.0319 
     28 CB         24.2527   23.0631    1.6422 C.3       3 UNK        -0.2001 
     29 N          25.8705   23.2559   -0.2326 N.am      3 UNK        -0.4354 
     30 C          25.1972   23.6042   -1.3394 C.2       2 UNK         0.4964 
     31 O          24.1854   24.3071   -1.3420 O.2       2 UNK        -0.5047 
     32 CA         25.8010   23.1165   -2.6722 C.3       2 UNK         0.0288 
     33 CB         24.8334   23.2851   -3.8589 C.3       2 UNK        -0.2113 
     34 N          27.0497   23.8220   -2.9757 N.am      2 UNK        -0.4145 
     35 C          28.2232   23.6069   -2.3649 C.2       1 UNK         0.5006 
     36 O          28.3913   22.7238   -1.5208 O.2       1 UNK        -0.5103 
     37 C          28.1904   28.6114    4.8955 C.2       5 UNK         0.5055 
     38 O          27.1362   29.2230    5.0812 O.2       5 UNK        -0.5220 
     39 N          29.4116   29.1392    5.0487 N.am      6 UNK        -0.4450 
     40 CA         29.7422   30.5265    5.4000 C.3       6 UNK         0.0367 
     41 CB         29.1862   30.9086    6.7885 C.3       6 UNK        -0.1929 
     42 C          29.3845   31.5582    4.3082 C.2       6 UNK         0.5070 
     43 O          29.4059   32.7576    4.5894 O.2       6 UNK        -0.5237 
     44 N          29.0832   31.0919    3.0879 N.am      7 UNK        -0.4739 
     45 CA         28.8207   31.9240    1.9131 C.3       7 UNK         0.0276 
     46 CB         27.4319   31.5924    1.3427 C.3       7 UNK        -0.1927 
     47 C          29.9132   31.7270    0.8539 C.2       7 UNK         0.5013 
     48 O          30.3631   32.7129    0.2689 O.2       7 UNK        -0.5193 
     49 N          30.3377   30.4732    0.6329 N.am      8 UNK        -0.4253 
     50 CA         31.4066   30.1216   -0.3088 C.3       8 UNK         0.0242 
     51 CB         31.3370   28.6183   -0.6142 C.3       8 UNK        -0.2000 
     52 C          32.8170   30.4952    0.1813 C.2       8 UNK         0.4948 
     53 O          33.7099   30.6808   -0.6472 O.2       8 UNK        -0.5275 
     54 N          33.0001   30.5872    1.5019 N.am      9 UNK        -0.4246 
     55 CA         34.2526   30.9011    2.1813 C.3       9 UNK         0.0261 
     56 CB         35.1647   29.6572    2.2002 C.3       9 UNK        -0.1959 
     57 C          33.9205   31.3686    3.6027 C.2       9 UNK         0.5033 
     58 O          32.7646   31.2725    4.0243 O.2       9 UNK        -0.5390 
     59 N          34.9372   31.8343    4.3383 N.am      10 UNK        -0.4215 
     60 CA         34.8452   32.2139    5.7518 C.3       10 UNK         0.0240 
     61 CB         36.0020   33.1740    6.0887 C.3       10 UNK        -0.1982 
     62 C          34.8210   30.9692    6.6630 C.2       10 UNK         0.4970 
     63 O          35.7698   30.7307    7.4123 O.2       10 UNK        -0.4916 
     64 N          33.7475   30.1799    6.5464 N.am      11 UNK        -0.4279 
     65 CA         33.5434   28.8972    7.2420 C.3       11 UNK         0.1003 
     66 C          33.3232   29.0062    8.7793 C.2       11 UNK         0.5709 
     67 N          33.0351   30.1798    9.3298 N.am      11 UNK        -0.7358 
     68 O          33.4191   28.0047    9.4845 O.2       11 UNK        -0.4999 
     69 C69        32.4102   28.0603    6.5884 C.3       12 UNK        -0.0954 
     70 S70        32.6135   27.8768    4.7815 S.3       12 UNK        -0.2268 
     71 C71        33.1408   26.1444    4.6217 C.3       12 UNK         0.0203 
     72 H72        29.8409   21.7815   -3.6659 H         1 UNK         0.0888 
     73 H73        30.6661   21.4225   -5.1679 H         1 UNK         0.0888 
     74 H74        31.5179   22.3012   -3.9076 H         1 UNK         0.0888 
     75 H75        29.3486   25.3426   -4.7096 H         1 UNK         0.3017 
     76 H76        29.0336   25.5411   -2.5990 H         1 UNK         0.0873 
     77 H77        30.9571   23.2978   -1.8365 H         1 UNK         0.0745 
     78 H78        31.5226   24.8297   -2.4407 H         1 UNK         0.0745 
     79 H79        31.8870   23.3027    0.5261 H         1 UNK         0.0705 
     80 H80        30.1812   22.9239    0.6187 H         1 UNK         0.0705 
     81 H81        32.7619   25.2269    2.0858 H         1 UNK         0.1334 
     82 H82        30.9983   25.1598    5.9949 H         1 UNK         0.1417 
     83 H83        29.0747   23.1387    2.7352 H         1 UNK         0.1562 
     84 H84        29.0256   23.8707    6.4298 H         1 UNK         0.0748 
     85 H85        28.6357   22.6012    5.2973 H         1 UNK         0.0748 
     86 H86        28.1760   26.2114    6.3938 H         1 UNK         0.0940 
     87 H87        26.5740   26.6289    5.8527 H         1 UNK         0.0940 
     88 H88        29.1602   26.8178    4.2239 H         1 UNK         0.0703 
     89 H89        26.5781   26.5085    3.1533 H         1 UNK         0.3081 
     90 H90        25.9849   27.8092    0.8975 H         1 UNK         0.0719 
     91 H91        28.4710   27.2010   -0.7736 H         1 UNK         0.0809 
     92 H92        26.8617   27.5480   -1.3992 H         1 UNK         0.0809 
     93 H93        27.7641   28.7947   -0.5572 H         1 UNK         0.0809 
     94 H94        27.2378   25.2892    0.0797 H         1 UNK         0.2990 
     95 H95        26.3831   23.2169    1.7598 H         1 UNK         0.0690 
     96 H96        24.2164   21.9848    1.4880 H         1 UNK         0.0788 
     97 H97        23.3995   23.5057    1.1273 H         1 UNK         0.0788 
     98 H98        24.1150   23.2408    2.7097 H         1 UNK         0.0788 
     99 H99        26.7296   22.7317   -0.3737 H         1 UNK         0.2993 
    100 H100       26.0133   22.0499   -2.5667 H         1 UNK         0.0949 
    101 H101       24.5948   24.3335   -4.0434 H         1 UNK         0.0767 
    102 H102       25.2546   22.8709   -4.7752 H         1 UNK         0.0767 
    103 H103       23.8931   22.7644   -3.6721 H         1 UNK         0.0767 
    104 H104       26.9887   24.5613   -3.6610 H         1 UNK         0.3013 
    105 H105       30.2107   28.5571    4.8284 H         1 UNK         0.3121 
    106 H106       30.8270   30.5538    5.4822 H         1 UNK         0.0774 
    107 H107       29.5849   31.8692    7.1165 H         1 UNK         0.0815 
    108 H108       28.0998   30.9973    6.7821 H         1 UNK         0.0815 
    109 H109       29.4607   30.1724    7.5439 H         1 UNK         0.0815 
    110 H110       29.0726   30.0888    2.9407 H         1 UNK         0.2987 
    111 H111       28.8246   32.9818    2.1852 H         1 UNK         0.0949 
    112 H112       27.2174   32.1980    0.4611 H         1 UNK         0.0806 
    113 H113       27.3488   30.5470    1.0489 H         1 UNK         0.0806 
    114 H114       26.6489   31.7949    2.0736 H         1 UNK         0.0806 
    115 H115       29.8826   29.7017    1.1154 H         1 UNK         0.3010 
    116 H116       31.2352   30.6644   -1.2410 H         1 UNK         0.0829 
    117 H117       30.4150   28.3664   -1.1347 H         1 UNK         0.0813 
    118 H118       32.1605   28.3047   -1.2574 H         1 UNK         0.0813 
    119 H119       31.3870   28.0194    0.2964 H         1 UNK         0.0813 
    120 H120       32.2108   30.4848    2.1285 H         1 UNK         0.3038 
    121 H121       34.7490   31.7210    1.6583 H         1 UNK         0.0769 
    122 H122       36.1124   29.8626    2.6986 H         1 UNK         0.0811 
    123 H123       35.4034   29.3224    1.1908 H         1 UNK         0.0811 
    124 H124       34.6945   28.8235    2.7231 H         1 UNK         0.0811 
    125 H125       35.8604   31.8556    3.9289 H         1 UNK         0.3204 
    126 H126       33.9097   32.7546    5.9126 H         1 UNK         0.0748 
    127 H127       35.9541   33.4921    7.1311 H         1 UNK         0.0771 
    128 H128       36.9759   32.7075    5.9342 H         1 UNK         0.0771 
    129 H129       35.9606   34.0745    5.4755 H         1 UNK         0.0771 
    130 H130       33.0624   30.4246    5.8400 H         1 UNK         0.2980 
    131 H131       34.4687   28.3312    7.1189 H         1 UNK         0.0545 
    132 H132       32.9582   31.0064    8.7603 H         1 UNK         0.3459 
    133 H133       32.8985   30.2371   10.3265 H         1 UNK         0.3459 
    134 H134       31.4456   28.5300    6.7789 H         1 UNK         0.0616 
    135 H135       32.3492   27.0728    7.0486 H         1 UNK         0.0616 
    136 H136       33.5066   25.7557    5.5728 H         1 UNK         0.0634 
    137 H137       33.9891   26.1067    3.9366 H         1 UNK         0.0634 
@<TRIPOS>BOND
     1    1    2 1    
     2    1   72 1    
     3    1   73 1    
     4    1   74 1    
     5    2    3 2    
     6    2    4 am   BACKBONE|DICT|INTERRES
     7    4    5 1    
     8    4   75 1    
     9    5    6 1    
    10    5   35 1    
    11    5   76 1    
    12    6    7 1    
    13    6   77 1    
    14    6   78 1    
    15    7    8 1    
    16    8    9 1    
    17    8   79 1    
    18    8   80 1    
    19    9   10 ar   
    20    9   14 ar   
    21   10   11 ar   
    22   10   81 1    
    23   11   12 ar   
    24   11   71 1    
    25   12   13 ar   
    26   12   82 1    
    27   13   14 ar   
    28   13   15 1    
    29   14   83 1    
    30   15   16 1    
    31   15   84 1    
    32   15   85 1    
    33   16   17 1    
    34   17   18 1    
    35   17   86 1    
    36   17   87 1    
    37   18   19 1    
    38   18   37 1    
    39   18   88 1    
    40   19   20 am   BACKBONE|DICT|INTERRES
    41   19   89 1    
    42   20   21 2    
    43   20   22 1    
    44   22   23 1    
    45   22   24 1    
    46   22   90 1    
    47   23   91 1    
    48   23   92 1    
    49   23   93 1    
    50   24   25 am   BACKBONE|DICT|INTERRES
    51   24   94 1    
    52   25   26 2    
    53   25   27 1    
    54   27   28 1    
    55   27   29 1    
    56   27   95 1    
    57   28   96 1    
    58   28   97 1    
    59   28   98 1    
    60   29   30 am   BACKBONE|DICT|INTERRES
    61   29   99 1    
    62   30   31 2    
    63   30   32 1    
    64   32   33 1    
    65   32   34 1    
    66   32  100 1    
    67   33  101 1    
    68   33  102 1    
    69   33  103 1    
    70   34   35 am   BACKBONE|DICT|INTERRES
    71   34  104 1    
    72   35   36 2    
    73   37   38 2    
    74   37   39 am   BACKBONE|DICT|INTERRES
    75   39   40 1    
    76   39  105 1    
    77   40   41 1    
    78   40   42 1    
    79   40  106 1    
    80   41  107 1    
    81   41  108 1    
    82   41  109 1    
    83   42   43 2    
    84   42   44 am   BACKBONE|DICT|INTERRES
    85   44   45 1    
    86   44  110 1    
    87   45   46 1    
    88   45   47 1    
    89   45  111 1    
    90   46  112 1    
    91   46  113 1    
    92   46  114 1    
    93   47   48 2    
    94   47   49 am   BACKBONE|DICT|INTERRES
    95   49   50 1    
    96   49  115 1    
    97   50   51 1    
    98   50   52 1    
    99   50  116 1    
   100   51  117 1    
   101   51  118 1    
   102   51  119 1    
   103   52   53 2    
   104   52   54 am   BACKBONE|DICT|INTERRES
   105   54   55 1    
   106   54  120 1    
   107   55   56 1    
   108   55   57 1    
   109   55  121 1    
   110   56  122 1    
   111   56  123 1    
   112   56  124 1    
   113   57   58 2    
   114   57   59 am   BACKBONE|DICT|INTERRES
   115   59   60 1    
   116   59  125 1    
   117   60   61 1    
   118   60   62 1    
   119   60  126 1    
   120   61  127 1    
   121   61  128 1    
   122   61  129 1    
   123   62   63 2    
   124   62   64 am   BACKBONE|DICT|INTERRES
   125   64   65 1    
   126   64  130 1    
   127   65   66 1    
   128   65   69 1    
   129   65  131 1    
   130   66   67 am   BACKBONE|DICT|INTERRES
   131   66   68 2    
   132   67  132 1    
   133   67  133 1    
   134   69   70 1    
   135   69  134 1    
   136   69  135 1    
   137   70   71 1    
   138   71  136 1    
   139   71  137 1    
@<TRIPOS>SUBSTRUCTURE
     1 UNK         1 GROUP             0       ****    0 ROOT    
