@<TRIPOS>MOLECULE
3R136
137   139    1
SMALL
USER_CHARGES


@<TRIPOS>ATOM
      1 CA         32.3382   23.6420   -0.2413 C.3       0 UNK        -0.1979 
      2 C          31.0038   23.9592    0.4161 C.2       0 UNK         0.4864 
      3 O          30.6635   25.1329    0.5665 O.2       0 UNK        -0.5359 
      4 N          30.2625   22.9188    0.8140 N.am      1 UNK        -0.4318 
      5 CA         28.9397   23.0062    1.4310 C.3       1 UNK         0.0824 
      6 C6         28.8130   21.9819    2.5931 C.3       12 UNK        -0.0944 
      7 S7         27.3622   22.2879    3.6583 S.3       12 UNK        -0.2672 
      8 C8         28.1107   23.2039    5.0429 C.3       12 UNK         0.0333 
      9 C9         28.5946   24.5782    4.6058 C.ar      12 UNK        -0.0807 
     10 C10        29.9486   24.8018    4.3393 C.ar      12 UNK        -0.0894 
     11 C11        30.3924   26.0605    3.9236 C.ar      12 UNK        -0.0804 
     12 C12        29.4725   27.1050    3.7896 C.ar      12 UNK        -0.0824 
     13 C13        28.1137   26.8892    4.0421 C.ar      12 UNK        -0.0762 
     14 C14        27.6820   25.6252    4.4537 C.ar      12 UNK        -0.0782 
     15 C15        27.1036   28.0135    3.8713 C.3       12 UNK         0.0230 
     16 S16        26.3257   27.9666    2.2242 S.3       12 UNK        -0.2608 
     17 C17        27.6023   28.7678    1.1961 C.3       12 UNK        -0.0989 
     18 CA         28.4394   27.7526    0.3722 C.3       5 UNK         0.0716 
     19 N          27.6537   26.9669   -0.5845 N.am      5 UNK        -0.4135 
     20 C          26.9276   27.4162   -1.6207 C.2       4 UNK         0.5031 
     21 O          26.8233   28.5962   -1.9554 O.2       4 UNK        -0.5229 
     22 CA         26.1394   26.3558   -2.4010 C.3       4 UNK         0.0329 
     23 CB         27.0497   25.6103   -3.3913 C.3       4 UNK        -0.2001 
     24 N          25.5194   25.3991   -1.4866 N.am      4 UNK        -0.4303 
     25 C          24.3434   25.5768   -0.8664 C.2       3 UNK         0.5044 
     26 O          23.6158   26.5511   -1.0654 O.2       3 UNK        -0.5152 
     27 CA         23.9034   24.5104    0.1643 C.3       3 UNK         0.0319 
     28 CB         22.4079   24.1521    0.0326 C.3       3 UNK        -0.2001 
     29 N          24.7405   23.3018    0.1780 N.am      3 UNK        -0.4354 
     30 C          24.9219   22.4164   -0.8153 C.2       2 UNK         0.4964 
     31 O          24.2696   22.4170   -1.8600 O.2       2 UNK        -0.5047 
     32 CA         26.0599   21.3893   -0.6320 C.3       2 UNK         0.0288 
     33 CB         26.7190   21.0131   -1.9767 C.3       2 UNK        -0.2113 
     34 N          27.0955   21.7848    0.3376 N.am      2 UNK        -0.4145 
     35 C          27.8715   22.8827    0.3241 C.2       1 UNK         0.5006 
     36 O          27.7561   23.7921   -0.5021 O.2       1 UNK        -0.5103 
     37 C          29.6411   28.4400   -0.3058 C.2       5 UNK         0.5055 
     38 O          29.4983   29.5286   -0.8662 O.2       5 UNK        -0.5220 
     39 N          30.8175   27.8049   -0.2136 N.am      6 UNK        -0.4450 
     40 CA         32.1004   28.3100   -0.7219 C.3       6 UNK         0.0367 
     41 CB         33.1881   27.2477   -0.4987 C.3       6 UNK        -0.1929 
     42 C          32.5472   29.6610   -0.1276 C.2       6 UNK         0.5070 
     43 O          33.3008   30.3828   -0.7816 O.2       6 UNK        -0.5237 
     44 N          32.0749   29.9871    1.0800 N.am      7 UNK        -0.4739 
     45 CA         32.2404   31.2802    1.7337 C.3       7 UNK         0.0276 
     46 CB         33.5438   31.2914    2.5494 C.3       7 UNK        -0.1927 
     47 C          31.0310   31.5157    2.6443 C.2       7 UNK         0.5013 
     48 O          30.3959   30.5491    3.0732 O.2       7 UNK        -0.5193 
     49 N          30.7542   32.7906    2.9444 N.am      8 UNK        -0.4253 
     50 CA         29.7189   33.2037    3.8986 C.3       8 UNK         0.0242 
     51 CB         29.2541   34.6280    3.5512 C.3       8 UNK        -0.2000 
     52 C          30.1944   33.1371    5.3631 C.2       8 UNK         0.4948 
     53 O          29.3548   33.0741    6.2624 O.2       8 UNK        -0.5275 
     54 N          31.5172   33.1711    5.5728 N.am      9 UNK        -0.4246 
     55 CA         32.1846   33.0608    6.8693 C.3       9 UNK         0.0261 
     56 CB         33.1559   34.2495    7.0324 C.3       9 UNK        -0.1959 
     57 C          32.8566   31.6784    6.9615 C.2       9 UNK         0.5033 
     58 O          32.1992   30.6736    6.6837 O.2       9 UNK        -0.5390 
     59 N          34.1402   31.6331    7.3455 N.am      10 UNK        -0.4215 
     60 CA         34.9583   30.4185    7.3634 C.3       10 UNK         0.0240 
     61 CB         36.2783   30.6996    8.1002 C.3       10 UNK        -0.1982 
     62 C          35.2258   29.9213    5.9331 C.2       10 UNK         0.4970 
     63 O          35.6330   30.7182    5.0850 O.2       10 UNK        -0.4916 
     64 N          34.9784   28.6284    5.7014 N.am      11 UNK        -0.4279 
     65 CA         35.0935   27.9546    4.3998 C.3       11 UNK         0.1003 
     66 C          36.5393   27.9619    3.8322 C.2       11 UNK         0.5709 
     67 N          36.6930   28.1041    2.5226 N.am      11 UNK        -0.7358 
     68 O          37.5151   27.7943    4.5621 O.2       11 UNK        -0.4999 
     69 C69        34.5397   26.5074    4.4625 C.3       12 UNK        -0.0954 
     70 S70        32.8424   26.4197    5.1281 S.3       12 UNK        -0.2268 
     71 C71        31.8634   26.2773    3.6051 C.3       12 UNK         0.0203 
     72 H72        32.3306   23.9713   -1.2797 H         1 UNK         0.0888 
     73 H73        33.1441   24.1588    0.2788 H         1 UNK         0.0888 
     74 H74        32.5576   22.5746   -0.2260 H         1 UNK         0.0888 
     75 H75        30.5952   21.9831    0.6297 H         1 UNK         0.3017 
     76 H76        28.8146   24.0052    1.8532 H         1 UNK         0.0873 
     77 H77        28.7835   20.9542    2.2272 H         1 UNK         0.0745 
     78 H78        29.7060   22.0279    3.2182 H         1 UNK         0.0745 
     79 H79        27.3685   23.3143    5.8350 H         1 UNK         0.0705 
     80 H80        28.9276   22.6210    5.4715 H         1 UNK         0.0705 
     81 H81        30.6606   23.9948    4.4457 H         1 UNK         0.1334 
     82 H82        29.8112   28.0820    3.4755 H         1 UNK         0.1417 
     83 H83        26.6315   25.4521    4.6452 H         1 UNK         0.1562 
     84 H84        27.5711   28.9845    4.0435 H         1 UNK         0.0748 
     85 H85        26.3228   27.9195    4.6276 H         1 UNK         0.0748 
     86 H86        28.2516   29.3655    1.8382 H         1 UNK         0.0940 
     87 H87        27.1081   29.4851    0.5388 H         1 UNK         0.0940 
     88 H88        28.8412   27.0235    1.0762 H         1 UNK         0.0703 
     89 H89        27.6920   25.9639   -0.4451 H         1 UNK         0.3081 
     90 H90        25.3590   26.8615   -2.9740 H         1 UNK         0.0719 
     91 H91        27.4990   26.3041   -4.1031 H         1 UNK         0.0809 
     92 H92        27.8639   25.0888   -2.8868 H         1 UNK         0.0809 
     93 H93        26.4879   24.8739   -3.9662 H         1 UNK         0.0809 
     94 H94        26.0824   24.5937   -1.2338 H         1 UNK         0.2990 
     95 H95        24.0426   24.9750    1.1417 H         1 UNK         0.0690 
     96 H96        22.1107   23.4095    0.7730 H         1 UNK         0.0788 
     97 H97        22.1692   23.7569   -0.9551 H         1 UNK         0.0788 
     98 H98        21.7804   25.0305    0.1880 H         1 UNK         0.0788 
     99 H99        25.3266   23.1974    0.9946 H         1 UNK         0.2993 
    100 H100       25.5879   20.4915   -0.2297 H         1 UNK         0.0949 
    101 H101       27.1584   21.8827   -2.4672 H         1 UNK         0.0767 
    102 H102       27.5069   20.2725   -1.8389 H         1 UNK         0.0767 
    103 H103       25.9921   20.5825   -2.6667 H         1 UNK         0.0767 
    104 H104       27.2368   21.1351    1.0995 H         1 UNK         0.3013 
    105 H105       30.8251   26.8683    0.1953 H         1 UNK         0.3121 
    106 H106       31.9862   28.4600   -1.7974 H         1 UNK         0.0774 
    107 H107       32.9748   26.3462   -1.0709 H         1 UNK         0.0815 
    108 H108       34.1649   27.6081   -0.8247 H         1 UNK         0.0815 
    109 H109       33.2739   26.9706    0.5527 H         1 UNK         0.0815 
    110 H110       31.4187   29.3702    1.5413 H         1 UNK         0.2987 
    111 H111       32.2688   32.0671    0.9763 H         1 UNK         0.0949 
    112 H112       34.4056   31.0198    1.9395 H         1 UNK         0.0806 
    113 H113       33.7421   32.2801    2.9641 H         1 UNK         0.0806 
    114 H114       33.4906   30.5955    3.3863 H         1 UNK         0.0806 
    115 H115       31.3084   33.5262    2.5286 H         1 UNK         0.3010 
    116 H116       28.8607   32.5342    3.8026 H         1 UNK         0.0829 
    117 H117       30.0668   35.3511    3.6314 H         1 UNK         0.0813 
    118 H118       28.8559   34.6794    2.5376 H         1 UNK         0.0813 
    119 H119       28.4609   34.9543    4.2255 H         1 UNK         0.0813 
    120 H120       32.1201   33.1768    4.7642 H         1 UNK         0.3038 
    121 H121       31.4537   33.1097    7.6790 H         1 UNK         0.0769 
    122 H122       32.6266   35.1979    6.9365 H         1 UNK         0.0811 
    123 H123       33.9474   34.2405    6.2815 H         1 UNK         0.0811 
    124 H124       33.6230   34.2518    8.0182 H         1 UNK         0.0811 
    125 H125       34.6185   32.5033    7.5269 H         1 UNK         0.3204 
    126 H126       34.4127   29.6502    7.9159 H         1 UNK         0.0748 
    127 H127       36.8628   31.4746    7.6021 H         1 UNK         0.0771 
    128 H128       36.1003   31.0199    9.1270 H         1 UNK         0.0771 
    129 H129       36.8979   29.8028    8.1440 H         1 UNK         0.0771 
    130 H130       34.6476   28.0493    6.4584 H         1 UNK         0.2980 
    131 H131       34.4653   28.5129    3.7043 H         1 UNK         0.0545 
    132 H132       37.6245   28.0945    2.1378 H         1 UNK         0.3459 
    133 H133       35.9018   28.2324    1.9127 H         1 UNK         0.3459 
    134 H134       35.1743   25.8869    5.0981 H         1 UNK         0.0616 
    135 H135       34.5608   26.0458    3.4735 H         1 UNK         0.0616 
    136 H136       32.2318   25.4407    3.0096 H         1 UNK         0.0634 
    137 H137       32.0008   27.1756    3.0010 H         1 UNK         0.0634 
@<TRIPOS>BOND
     1    1    2 1    
     2    1   72 1    
     3    1   73 1    
     4    1   74 1    
     5    2    3 2    
     6    2    4 am   BACKBONE|DICT|INTERRES
     7    4    5 1    
     8    4   75 1    
     9    5    6 1    
    10    5   35 1    
    11    5   76 1    
    12    6    7 1    
    13    6   77 1    
    14    6   78 1    
    15    7    8 1    
    16    8    9 1    
    17    8   79 1    
    18    8   80 1    
    19    9   10 ar   
    20    9   14 ar   
    21   10   11 ar   
    22   10   81 1    
    23   11   12 ar   
    24   11   71 1    
    25   12   13 ar   
    26   12   82 1    
    27   13   14 ar   
    28   13   15 1    
    29   14   83 1    
    30   15   16 1    
    31   15   84 1    
    32   15   85 1    
    33   16   17 1    
    34   17   18 1    
    35   17   86 1    
    36   17   87 1    
    37   18   19 1    
    38   18   37 1    
    39   18   88 1    
    40   19   20 am   BACKBONE|DICT|INTERRES
    41   19   89 1    
    42   20   21 2    
    43   20   22 1    
    44   22   23 1    
    45   22   24 1    
    46   22   90 1    
    47   23   91 1    
    48   23   92 1    
    49   23   93 1    
    50   24   25 am   BACKBONE|DICT|INTERRES
    51   24   94 1    
    52   25   26 2    
    53   25   27 1    
    54   27   28 1    
    55   27   29 1    
    56   27   95 1    
    57   28   96 1    
    58   28   97 1    
    59   28   98 1    
    60   29   30 am   BACKBONE|DICT|INTERRES
    61   29   99 1    
    62   30   31 2    
    63   30   32 1    
    64   32   33 1    
    65   32   34 1    
    66   32  100 1    
    67   33  101 1    
    68   33  102 1    
    69   33  103 1    
    70   34   35 am   BACKBONE|DICT|INTERRES
    71   34  104 1    
    72   35   36 2    
    73   37   38 2    
    74   37   39 am   BACKBONE|DICT|INTERRES
    75   39   40 1    
    76   39  105 1    
    77   40   41 1    
    78   40   42 1    
    79   40  106 1    
    80   41  107 1    
    81   41  108 1    
    82   41  109 1    
    83   42   43 2    
    84   42   44 am   BACKBONE|DICT|INTERRES
    85   44   45 1    
    86   44  110 1    
    87   45   46 1    
    88   45   47 1    
    89   45  111 1    
    90   46  112 1    
    91   46  113 1    
    92   46  114 1    
    93   47   48 2    
    94   47   49 am   BACKBONE|DICT|INTERRES
    95   49   50 1    
    96   49  115 1    
    97   50   51 1    
    98   50   52 1    
    99   50  116 1    
   100   51  117 1    
   101   51  118 1    
   102   51  119 1    
   103   52   53 2    
   104   52   54 am   BACKBONE|DICT|INTERRES
   105   54   55 1    
   106   54  120 1    
   107   55   56 1    
   108   55   57 1    
   109   55  121 1    
   110   56  122 1    
   111   56  123 1    
   112   56  124 1    
   113   57   58 2    
   114   57   59 am   BACKBONE|DICT|INTERRES
   115   59   60 1    
   116   59  125 1    
   117   60   61 1    
   118   60   62 1    
   119   60  126 1    
   120   61  127 1    
   121   61  128 1    
   122   61  129 1    
   123   62   63 2    
   124   62   64 am   BACKBONE|DICT|INTERRES
   125   64   65 1    
   126   64  130 1    
   127   65   66 1    
   128   65   69 1    
   129   65  131 1    
   130   66   67 am   BACKBONE|DICT|INTERRES
   131   66   68 2    
   132   67  132 1    
   133   67  133 1    
   134   69   70 1    
   135   69  134 1    
   136   69  135 1    
   137   70   71 1    
   138   71  136 1    
   139   71  137 1    
@<TRIPOS>SUBSTRUCTURE
     1 UNK         1 GROUP             0       ****    0 ROOT    
