@<TRIPOS>MOLECULE
3R136
137   139    1
SMALL
USER_CHARGES


@<TRIPOS>ATOM
      1 CA         34.7354   24.9849   -0.2392 C.3       0 UNK        -0.1979 
      2 C          33.3816   25.5145   -0.6887 C.2       0 UNK         0.4864 
      3 O          33.2888   26.1387   -1.7465 O.2       0 UNK        -0.5359 
      4 N          32.3348   25.2798    0.1115 N.am      1 UNK        -0.4318 
      5 CA         30.9501   25.6456   -0.1927 C.3       1 UNK         0.0824 
      6 C6         30.0901   25.7716    1.0914 C.3       12 UNK        -0.0944 
      7 S7         30.2068   24.3498    2.2362 S.3       12 UNK        -0.2672 
      8 C8         28.6098   24.4530    3.1223 C.3       12 UNK         0.0333 
      9 C9         28.4400   25.6282    4.0921 C.ar      12 UNK        -0.0807 
     10 C10        29.4645   26.5408    4.3814 C.ar      12 UNK        -0.0894 
     11 C11        29.2458   27.6112    5.2520 C.ar      12 UNK        -0.0804 
     12 C12        27.9946   27.7665    5.8540 C.ar      12 UNK        -0.0824 
     13 C13        26.9692   26.8508    5.6033 C.ar      12 UNK        -0.0762 
     14 C14        27.2017   25.7856    4.7253 C.ar      12 UNK        -0.0782 
     15 C15        25.6171   27.0104    6.2903 C.3       12 UNK         0.0230 
     16 S16        24.2307   27.1358    5.1125 S.3       12 UNK        -0.2608 
     17 C17        24.6084   28.6907    4.2303 C.3       12 UNK        -0.0989 
     18 CA         25.4529   28.4583    2.9499 C.3       5 UNK         0.0716 
     19 N          24.8487   27.4634    2.0564 N.am      5 UNK        -0.4135 
     20 C          25.5196   26.7167    1.1732 C.2       4 UNK         0.5031 
     21 O          26.7214   26.8569    0.9272 O.2       4 UNK        -0.5229 
     22 CA         24.7215   25.6428    0.4311 C.3       4 UNK         0.0329 
     23 CB         24.0166   26.2329   -0.8029 C.3       4 UNK        -0.2001 
     24 N          25.6558   24.6025    0.0171 N.am      4 UNK        -0.4303 
     25 C          25.3679   23.3126   -0.1850 C.2       3 UNK         0.5044 
     26 O          24.2389   22.8387   -0.0436 O.2       3 UNK        -0.5152 
     27 CA         26.5421   22.3984   -0.6029 C.3       3 UNK         0.0319 
     28 CB         26.0722   21.1280   -1.3434 C.3       3 UNK        -0.2001 
     29 N          27.5918   23.0852   -1.3714 N.am      3 UNK        -0.4354 
     30 C          27.4586   23.7327   -2.5401 C.2       2 UNK         0.4964 
     31 O          26.3949   23.8214   -3.1554 O.2       2 UNK        -0.5047 
     32 CA         28.7245   24.4176   -3.0971 C.3       2 UNK         0.0288 
     33 CB         28.4172   25.3571   -4.2795 C.3       2 UNK        -0.2113 
     34 N          29.4411   25.1791   -2.0680 N.am      2 UNK        -0.4145 
     35 C          30.3294   24.6650   -1.2071 C.2       1 UNK         0.5006 
     36 O          30.6203   23.4663   -1.1699 O.2       1 UNK        -0.5103 
     37 C          25.7923   29.7662    2.2059 C.2       5 UNK         0.5055 
     38 O          25.2156   30.8177    2.4879 O.2       5 UNK        -0.5220 
     39 N          26.7347   29.6651    1.2620 N.am      6 UNK        -0.4450 
     40 CA         27.2459   30.7538    0.4267 C.3       6 UNK         0.0367 
     41 CB         27.8755   30.1346   -0.8340 C.3       6 UNK        -0.1929 
     42 C          28.2588   31.6727    1.1403 C.2       6 UNK         0.5070 
     43 O          28.7090   32.6406    0.5267 O.2       6 UNK        -0.5237 
     44 N          28.6230   31.3469    2.3922 N.am      7 UNK        -0.4739 
     45 CA         29.6569   31.9940    3.2167 C.3       7 UNK         0.0276 
     46 CB         29.2803   33.4539    3.5497 C.3       7 UNK        -0.1927 
     47 C          31.0644   31.8511    2.6018 C.2       7 UNK         0.5013 
     48 O          31.8513   32.8001    2.6091 O.2       7 UNK        -0.5193 
     49 N          31.3334   30.6582    2.0554 N.am      8 UNK        -0.4253 
     50 CA         32.5842   30.2847    1.3979 C.3       8 UNK         0.0242 
     51 CB         32.3287   29.0198    0.5599 C.3       8 UNK        -0.2000 
     52 C          33.7293   30.0443    2.3963 C.2       8 UNK         0.4948 
     53 O          33.4999   29.9396    3.6051 O.2       8 UNK        -0.5275 
     54 N          34.9416   29.8822    1.8449 N.am      9 UNK        -0.4246 
     55 CA         36.2076   29.6338    2.5496 C.3       9 UNK         0.0261 
     56 CB         37.3397   29.5159    1.5158 C.3       9 UNK        -0.1959 
     57 C          36.2211   28.4161    3.4946 C.2       9 UNK         0.5033 
     58 O          37.0734   28.3628    4.3820 O.2       9 UNK        -0.5390 
     59 N          35.2597   27.4946    3.3361 N.am      10 UNK        -0.4215 
     60 CA         34.9678   26.3943    4.2608 C.3       10 UNK         0.0240 
     61 CB         33.7928   25.5712    3.7065 C.3       10 UNK        -0.1982 
     62 C          34.6645   26.8542    5.7020 C.2       10 UNK         0.4970 
     63 O          34.9641   26.1112    6.6374 O.2       10 UNK        -0.4916 
     64 N          34.1087   28.0643    5.8529 N.am      11 UNK        -0.4279 
     65 CA         33.8902   28.7364    7.1430 C.3       11 UNK         0.1003 
     66 C          35.0384   29.7141    7.5338 C.2       11 UNK         0.5709 
     67 N          36.1514   29.7786    6.8114 N.am      11 UNK        -0.7358 
     68 O          34.9317   30.4202    8.5340 O.2       11 UNK        -0.4999 
     69 C69        32.4977   29.4186    7.1945 C.3       12 UNK        -0.0954 
     70 S70        31.1493   28.1935    7.1445 S.3       12 UNK        -0.2268 
     71 C71        30.3678   28.5906    5.5557 C.3       12 UNK         0.0203 
     72 H72        35.2616   24.5351   -1.0808 H         1 UNK         0.0888 
     73 H73        35.3473   25.7978    0.1508 H         1 UNK         0.0888 
     74 H74        34.6363   24.2252    0.5358 H         1 UNK         0.0888 
     75 H75        32.4473   24.7153    0.9416 H         1 UNK         0.3017 
     76 H76        30.9661   26.6289   -0.6681 H         1 UNK         0.0873 
     77 H77        29.0458   25.9343    0.8299 H         1 UNK         0.0745 
     78 H78        30.3902   26.6650    1.6374 H         1 UNK         0.0745 
     79 H79        27.8052   24.4777    2.3858 H         1 UNK         0.0705 
     80 H80        28.4821   23.5269    3.6842 H         1 UNK         0.0705 
     81 H81        30.4433   26.4282    3.9411 H         1 UNK         0.1334 
     82 H82        27.8299   28.5909    6.5345 H         1 UNK         0.1417 
     83 H83        26.4048   25.0819    4.5252 H         1 UNK         0.1562 
     84 H84        25.6081   27.8858    6.9416 H         1 UNK         0.0748 
     85 H85        25.4497   26.1478    6.9366 H         1 UNK         0.0748 
     86 H86        25.1218   29.3723    4.9114 H         1 UNK         0.0940 
     87 H87        23.6607   29.1714    3.9802 H         1 UNK         0.0940 
     88 H88        26.4156   28.0610    3.2726 H         1 UNK         0.0703 
     89 H89        23.8597   27.3045    2.1821 H         1 UNK         0.3081 
     90 H90        23.9833   25.2197    1.1160 H         1 UNK         0.0719 
     91 H91        24.7315   26.6638   -1.5054 H         1 UNK         0.0809 
     92 H92        23.4461   25.4712   -1.3348 H         1 UNK         0.0809 
     93 H93        23.3183   27.0213   -0.5194 H         1 UNK         0.0809 
     94 H94        26.6121   24.9212   -0.0704 H         1 UNK         0.2990 
     95 H95        27.0133   22.0790    0.3278 H         1 UNK         0.0690 
     96 H96        26.9141   20.4877   -1.6067 H         1 UNK         0.0788 
     97 H97        25.5349   21.3706   -2.2608 H         1 UNK         0.0788 
     98 H98        25.4005   20.5358   -0.7206 H         1 UNK         0.0788 
     99 H99        28.5227   23.0557   -0.9699 H         1 UNK         0.2993 
    100 H100       29.3742   23.6219   -3.4690 H         1 UNK         0.0949 
    101 H101       27.7436   26.1646   -3.9894 H         1 UNK         0.0767 
    102 H102       29.3281   25.8054   -4.6770 H         1 UNK         0.0767 
    103 H103       27.9437   24.8147   -5.0992 H         1 UNK         0.0767 
    104 H104       29.2221   26.1636   -2.0139 H         1 UNK         0.3013 
    105 H105       27.0870   28.7302    1.0678 H         1 UNK         0.3121 
    106 H106       26.4046   31.3786    0.1196 H         1 UNK         0.0774 
    107 H107       28.7331   29.5065   -0.5895 H         1 UNK         0.0815 
    108 H108       28.2231   30.9078   -1.5207 H         1 UNK         0.0815 
    109 H109       27.1555   29.5227   -1.3779 H         1 UNK         0.0815 
    110 H110       28.1789   30.5369    2.7997 H         1 UNK         0.2987 
    111 H111       29.6861   31.4489    4.1601 H         1 UNK         0.0949 
    112 H112       28.2835   33.5170    3.9858 H         1 UNK         0.0806 
    113 H113       29.9773   33.8798    4.2726 H         1 UNK         0.0806 
    114 H114       29.3020   34.0931    2.6668 H         1 UNK         0.0806 
    115 H115       30.6264   29.9423    2.1162 H         1 UNK         0.3010 
    116 H116       32.8751   31.0999    0.7316 H         1 UNK         0.0829 
    117 H117       33.1885   28.7721   -0.0637 H         1 UNK         0.0813 
    118 H118       32.1293   28.1559    1.1934 H         1 UNK         0.0813 
    119 H119       31.4800   29.1507   -0.1119 H         1 UNK         0.0813 
    120 H120       35.0154   29.9715    0.8413 H         1 UNK         0.3038 
    121 H121       36.4018   30.5111    3.1700 H         1 UNK         0.0769 
    122 H122       37.1818   28.6758    0.8382 H         1 UNK         0.0811 
    123 H123       38.3028   29.3624    2.0052 H         1 UNK         0.0811 
    124 H124       37.4276   30.4217    0.9156 H         1 UNK         0.0811 
    125 H125       34.6042   27.6372    2.5835 H         1 UNK         0.3204 
    126 H126       35.8519   25.7548    4.3013 H         1 UNK         0.0748 
    127 H127       33.5385   24.7493    4.3776 H         1 UNK         0.0771 
    128 H128       32.8954   26.1786    3.5827 H         1 UNK         0.0771 
    129 H129       34.0388   25.1310    2.7415 H         1 UNK         0.0771 
    130 H130       33.9103   28.6275    5.0310 H         1 UNK         0.2980 
    131 H131       33.8996   27.9857    7.9350 H         1 UNK         0.0545 
    132 H132       36.2999   29.1814    6.0058 H         1 UNK         0.3459 
    133 H133       36.8780   30.4148    7.0976 H         1 UNK         0.3459 
    134 H134       32.3907   30.1376    6.3801 H         1 UNK         0.0616 
    135 H135       32.3727   29.9842    8.1194 H         1 UNK         0.0616 
    136 H136       29.9732   29.6058    5.5967 H         1 UNK         0.0634 
    137 H137       31.1201   28.5749    4.7650 H         1 UNK         0.0634 
@<TRIPOS>BOND
     1    1    2 1    
     2    1   72 1    
     3    1   73 1    
     4    1   74 1    
     5    2    3 2    
     6    2    4 am   BACKBONE|DICT|INTERRES
     7    4    5 1    
     8    4   75 1    
     9    5    6 1    
    10    5   35 1    
    11    5   76 1    
    12    6    7 1    
    13    6   77 1    
    14    6   78 1    
    15    7    8 1    
    16    8    9 1    
    17    8   79 1    
    18    8   80 1    
    19    9   10 ar   
    20    9   14 ar   
    21   10   11 ar   
    22   10   81 1    
    23   11   12 ar   
    24   11   71 1    
    25   12   13 ar   
    26   12   82 1    
    27   13   14 ar   
    28   13   15 1    
    29   14   83 1    
    30   15   16 1    
    31   15   84 1    
    32   15   85 1    
    33   16   17 1    
    34   17   18 1    
    35   17   86 1    
    36   17   87 1    
    37   18   19 1    
    38   18   37 1    
    39   18   88 1    
    40   19   20 am   BACKBONE|DICT|INTERRES
    41   19   89 1    
    42   20   21 2    
    43   20   22 1    
    44   22   23 1    
    45   22   24 1    
    46   22   90 1    
    47   23   91 1    
    48   23   92 1    
    49   23   93 1    
    50   24   25 am   BACKBONE|DICT|INTERRES
    51   24   94 1    
    52   25   26 2    
    53   25   27 1    
    54   27   28 1    
    55   27   29 1    
    56   27   95 1    
    57   28   96 1    
    58   28   97 1    
    59   28   98 1    
    60   29   30 am   BACKBONE|DICT|INTERRES
    61   29   99 1    
    62   30   31 2    
    63   30   32 1    
    64   32   33 1    
    65   32   34 1    
    66   32  100 1    
    67   33  101 1    
    68   33  102 1    
    69   33  103 1    
    70   34   35 am   BACKBONE|DICT|INTERRES
    71   34  104 1    
    72   35   36 2    
    73   37   38 2    
    74   37   39 am   BACKBONE|DICT|INTERRES
    75   39   40 1    
    76   39  105 1    
    77   40   41 1    
    78   40   42 1    
    79   40  106 1    
    80   41  107 1    
    81   41  108 1    
    82   41  109 1    
    83   42   43 2    
    84   42   44 am   BACKBONE|DICT|INTERRES
    85   44   45 1    
    86   44  110 1    
    87   45   46 1    
    88   45   47 1    
    89   45  111 1    
    90   46  112 1    
    91   46  113 1    
    92   46  114 1    
    93   47   48 2    
    94   47   49 am   BACKBONE|DICT|INTERRES
    95   49   50 1    
    96   49  115 1    
    97   50   51 1    
    98   50   52 1    
    99   50  116 1    
   100   51  117 1    
   101   51  118 1    
   102   51  119 1    
   103   52   53 2    
   104   52   54 am   BACKBONE|DICT|INTERRES
   105   54   55 1    
   106   54  120 1    
   107   55   56 1    
   108   55   57 1    
   109   55  121 1    
   110   56  122 1    
   111   56  123 1    
   112   56  124 1    
   113   57   58 2    
   114   57   59 am   BACKBONE|DICT|INTERRES
   115   59   60 1    
   116   59  125 1    
   117   60   61 1    
   118   60   62 1    
   119   60  126 1    
   120   61  127 1    
   121   61  128 1    
   122   61  129 1    
   123   62   63 2    
   124   62   64 am   BACKBONE|DICT|INTERRES
   125   64   65 1    
   126   64  130 1    
   127   65   66 1    
   128   65   69 1    
   129   65  131 1    
   130   66   67 am   BACKBONE|DICT|INTERRES
   131   66   68 2    
   132   67  132 1    
   133   67  133 1    
   134   69   70 1    
   135   69  134 1    
   136   69  135 1    
   137   70   71 1    
   138   71  136 1    
   139   71  137 1    
@<TRIPOS>SUBSTRUCTURE
     1 UNK         1 GROUP             0       ****    0 ROOT    
