@<TRIPOS>MOLECULE
3R136
137   139    1
SMALL
USER_CHARGES


@<TRIPOS>ATOM
      1 CA         29.4689   23.7720    4.2348 C.3       0 UNK        -0.1979 
      2 C          28.8780   22.6320    3.4187 C.2       0 UNK         0.4864 
      3 O          28.0413   21.8834    3.9240 O.2       0 UNK        -0.5359 
      4 N          29.3217   22.4917    2.1629 N.am      1 UNK        -0.4318 
      5 CA         28.9224   21.4239    1.2381 C.3       1 UNK         0.0824 
      6 C6         29.8722   21.3421    0.0143 C.3       12 UNK        -0.0944 
      7 S7         31.4770   20.5177    0.3152 S.3       12 UNK        -0.2672 
      8 C8         32.2414   21.3976    1.7261 C.3       12 UNK         0.0333 
      9 C9         32.4721   22.9015    1.5527 C.ar      12 UNK        -0.0807 
     10 C10        32.6890   23.6743    2.6986 C.ar      12 UNK        -0.0894 
     11 C11        32.9406   25.0453    2.6022 C.ar      12 UNK        -0.0804 
     12 C12        32.9603   25.6529    1.3445 C.ar      12 UNK        -0.0824 
     13 C13        32.7439   24.8992    0.1861 C.ar      12 UNK        -0.0762 
     14 C14        32.5157   23.5240    0.2979 C.ar      12 UNK        -0.0782 
     15 C15        32.8087   25.5439   -1.1956 C.3       12 UNK         0.0230 
     16 S16        31.8900   27.1133   -1.3229 S.3       12 UNK        -0.2608 
     17 C17        30.1607   26.5633   -1.1290 C.3       12 UNK        -0.0989 
     18 CA         29.2532   27.7010   -0.5888 C.3       5 UNK         0.0716 
     19 N          27.8839   27.5861   -1.1069 N.am      5 UNK        -0.4135 
     20 C          27.3154   28.4495   -1.9624 C.2       4 UNK         0.5031 
     21 O          27.8747   29.4594   -2.3926 O.2       4 UNK        -0.5229 
     22 CA         25.8851   28.1442   -2.4520 C.3       4 UNK         0.0329 
     23 CB         25.9282   27.4657   -3.8311 C.3       4 UNK        -0.2001 
     24 N          25.1058   27.3098   -1.5368 N.am      4 UNK        -0.4303 
     25 C          24.6642   27.6958   -0.3321 C.2       3 UNK         0.5044 
     26 O          24.8000   28.8356    0.1123 O.2       3 UNK        -0.5152 
     27 CA         23.9752   26.6258    0.5387 C.3       3 UNK         0.0319 
     28 CB         22.4473   26.7602    0.4340 C.3       3 UNK        -0.2001 
     29 N          24.3533   25.2314    0.2573 N.am      3 UNK        -0.4354 
     30 C          25.5998   24.7399    0.2377 C.2       2 UNK         0.4964 
     31 O          26.6155   25.4325    0.3511 O.2       2 UNK        -0.5047 
     32 CA         25.7455   23.2352    0.0027 C.3       2 UNK         0.0288 
     33 CB         25.6008   22.9041   -1.4954 C.3       2 UNK        -0.2113 
     34 N          27.0645   22.8368    0.4829 N.am      2 UNK        -0.4145 
     35 C          27.4635   21.5914    0.7635 C.2       1 UNK         0.5006 
     36 O          26.7417   20.5986    0.6524 O.2       1 UNK        -0.5103 
     37 C          29.2897   27.7879    0.9514 C.2       5 UNK         0.5055 
     38 O          30.2484   28.3389    1.4908 O.2       5 UNK        -0.5220 
     39 N          28.2616   27.2673    1.6388 N.am      6 UNK        -0.4450 
     40 CA         28.1002   27.2712    3.0949 C.3       6 UNK         0.0367 
     41 CB         27.0101   26.2511    3.4741 C.3       6 UNK        -0.1929 
     42 C          27.7996   28.6753    3.6567 C.2       6 UNK         0.5070 
     43 O          26.6880   28.9326    4.1230 O.2       6 UNK        -0.5237 
     44 N          28.7961   29.5602    3.5977 N.am      7 UNK        -0.4739 
     45 CA         28.7703   30.9195    4.1231 C.3       7 UNK         0.0276 
     46 CB         28.5389   31.9041    2.9648 C.3       7 UNK        -0.1927 
     47 C          30.1080   31.2020    4.8104 C.2       7 UNK         0.5013 
     48 O          31.1388   30.6726    4.3843 O.2       7 UNK        -0.5193 
     49 N          30.0827   32.0752    5.8268 N.am      8 UNK        -0.4253 
     50 CA         31.2413   32.4686    6.6410 C.3       8 UNK         0.0242 
     51 CB         30.7780   33.4160    7.7591 C.3       8 UNK        -0.2000 
     52 C          32.4016   33.1005    5.8495 C.2       8 UNK         0.4948 
     53 O          33.5457   33.0184    6.2952 O.2       8 UNK        -0.5275 
     54 N          32.1023   33.6745    4.6758 N.am      9 UNK        -0.4246 
     55 CA         33.0846   34.1810    3.7146 C.3       9 UNK         0.0261 
     56 CB         32.3480   34.9204    2.5855 C.3       9 UNK        -0.1959 
     57 C          34.0049   33.0899    3.1308 C.2       9 UNK         0.5033 
     58 O          35.1224   33.4153    2.7263 O.2       9 UNK        -0.5390 
     59 N          33.5330   31.8352    3.0962 N.am      10 UNK        -0.4215 
     60 CA         34.2937   30.6710    2.6428 C.3       10 UNK         0.0240 
     61 CB         33.4814   29.9102    1.5814 C.3       10 UNK        -0.1982 
     62 C          34.6382   29.7463    3.8180 C.2       10 UNK         0.4970 
     63 O          35.7888   29.3214    3.9287 O.2       10 UNK        -0.4916 
     64 N          33.6425   29.4368    4.6575 N.am      11 UNK        -0.4279 
     65 CA         33.7427   28.4550    5.7478 C.3       11 UNK         0.1003 
     66 C          34.2174   29.0365    7.1091 C.2       11 UNK         0.5709 
     67 N          34.4218   30.3389    7.2565 N.am      11 UNK        -0.7358 
     68 O          34.4256   28.2815    8.0560 O.2       11 UNK        -0.4999 
     69 C69        32.4283   27.6396    5.9023 C.3       12 UNK        -0.0954 
     70 S70        31.8174   26.8701    4.3607 S.3       12 UNK        -0.2268 
     71 C71        33.2420   25.8633    3.8485 C.3       12 UNK         0.0203 
     72 H72        29.8851   24.5499    3.5949 H         1 UNK         0.0888 
     73 H73        28.7065   24.2258    4.8667 H         1 UNK         0.0888 
     74 H74        30.2636   23.3993    4.8802 H         1 UNK         0.0888 
     75 H75        30.0326   23.1225    1.8197 H         1 UNK         0.3017 
     76 H76        28.9717   20.4750    1.7770 H         1 UNK         0.0873 
     77 H77        30.0435   22.3325   -0.4099 H         1 UNK         0.0745 
     78 H78        29.4065   20.7657   -0.7884 H         1 UNK         0.0745 
     79 H79        31.6451   21.2071    2.6191 H         1 UNK         0.0705 
     80 H80        33.2103   20.9342    1.9158 H         1 UNK         0.0705 
     81 H81        32.6821   23.2021    3.6719 H         1 UNK         0.1334 
     82 H82        33.1529   26.7144    1.2691 H         1 UNK         0.1417 
     83 H83        32.3860   22.9396   -0.6019 H         1 UNK         0.1562 
     84 H84        32.4352   24.8623   -1.9615 H         1 UNK         0.0748 
     85 H85        33.8550   25.7343   -1.4375 H         1 UNK         0.0748 
     86 H86        30.1072   25.6740   -0.4976 H         1 UNK         0.0940 
     87 H87        29.8234   26.2453   -2.1169 H         1 UNK         0.0940 
     88 H88        29.6686   28.6516   -0.9300 H         1 UNK         0.0703 
     89 H89        27.3462   26.7859   -0.7889 H         1 UNK         0.3081 
     90 H90        25.3669   29.0997   -2.5583 H         1 UNK         0.0719 
     91 H91        26.4768   28.0765   -4.5497 H         1 UNK         0.0809 
     92 H92        26.4200   26.4929   -3.7884 H         1 UNK         0.0809 
     93 H93        24.9257   27.3192   -4.2337 H         1 UNK         0.0809 
     94 H94        24.9357   26.3562   -1.8206 H         1 UNK         0.2990 
     95 H95        24.2590   26.8320    1.5718 H         1 UNK         0.0690 
     96 H96        22.1268   27.7776    0.6637 H         1 UNK         0.0788 
     97 H97        21.9402   26.0988    1.1368 H         1 UNK         0.0788 
     98 H98        22.0896   26.5247   -0.5692 H         1 UNK         0.0788 
     99 H99        23.5864   24.5875    0.1228 H         1 UNK         0.2993 
    100 H100       24.9806   22.7120    0.5806 H         1 UNK         0.0949 
    101 H101       25.6913   21.8332   -1.6777 H         1 UNK         0.0767 
    102 H102       24.6258   23.2110   -1.8761 H         1 UNK         0.0767 
    103 H103       26.3606   23.4088   -2.0938 H         1 UNK         0.0767 
    104 H104       27.6939   23.6136    0.6395 H         1 UNK         0.3013 
    105 H105       27.5347   26.7770    1.1259 H         1 UNK         0.3121 
    106 H106       29.0368   26.9351    3.5404 H         1 UNK         0.0774 
    107 H107       26.9164   26.1654    4.5573 H         1 UNK         0.0815 
    108 H108       26.0344   26.5415    3.0857 H         1 UNK         0.0815 
    109 H109       27.2359   25.2587    3.0865 H         1 UNK         0.0815 
    110 H110       29.6756   29.2683    3.1761 H         1 UNK         0.2987 
    111 H111       27.9699   31.0235    4.8592 H         1 UNK         0.0949 
    112 H112       28.5086   32.9342    3.3218 H         1 UNK         0.0806 
    113 H113       29.3301   31.8377    2.2164 H         1 UNK         0.0806 
    114 H114       27.5906   31.7073    2.4643 H         1 UNK         0.0806 
    115 H115       29.1954   32.4784    6.0929 H         1 UNK         0.3010 
    116 H116       31.6320   31.5600    7.1044 H         1 UNK         0.0829 
    117 H117       30.3444   34.3330    7.3583 H         1 UNK         0.0813 
    118 H118       30.0336   32.9424    8.3994 H         1 UNK         0.0813 
    119 H119       31.6142   33.7036    8.3985 H         1 UNK         0.0813 
    120 H120       31.1328   33.7086    4.3975 H         1 UNK         0.3038 
    121 H121       33.7209   34.8983    4.2376 H         1 UNK         0.0769 
    122 H122       31.6771   34.2569    2.0381 H         1 UNK         0.0811 
    123 H123       33.0548   35.3350    1.8652 H         1 UNK         0.0811 
    124 H124       31.7587   35.7520    2.9724 H         1 UNK         0.0811 
    125 H125       32.6116   31.6473    3.4793 H         1 UNK         0.3204 
    126 H126       35.2334   30.9826    2.1819 H         1 UNK         0.0748 
    127 H127       34.0323   29.0440    1.2131 H         1 UNK         0.0771 
    128 H128       32.5337   29.5478    1.9812 H         1 UNK         0.0771 
    129 H129       33.2596   30.5426    0.7219 H         1 UNK         0.0771 
    130 H130       32.7140   29.8246    4.5044 H         1 UNK         0.2980 
    131 H131       34.5261   27.7429    5.4873 H         1 UNK         0.0545 
    132 H132       34.7401   30.6817    8.1484 H         1 UNK         0.3459 
    133 H133       34.2435   30.9959    6.5096 H         1 UNK         0.3459 
    134 H134       31.6331   28.2840    6.2817 H         1 UNK         0.0616 
    135 H135       32.5549   26.8453    6.6401 H         1 UNK         0.0616 
    136 H136       34.0919   26.5129    3.6378 H         1 UNK         0.0634 
    137 H137       33.5398   25.2144    4.6734 H         1 UNK         0.0634 
@<TRIPOS>BOND
     1    1    2 1    
     2    1   72 1    
     3    1   73 1    
     4    1   74 1    
     5    2    3 2    
     6    2    4 am   BACKBONE|DICT|INTERRES
     7    4    5 1    
     8    4   75 1    
     9    5    6 1    
    10    5   35 1    
    11    5   76 1    
    12    6    7 1    
    13    6   77 1    
    14    6   78 1    
    15    7    8 1    
    16    8    9 1    
    17    8   79 1    
    18    8   80 1    
    19    9   10 ar   
    20    9   14 ar   
    21   10   11 ar   
    22   10   81 1    
    23   11   12 ar   
    24   11   71 1    
    25   12   13 ar   
    26   12   82 1    
    27   13   14 ar   
    28   13   15 1    
    29   14   83 1    
    30   15   16 1    
    31   15   84 1    
    32   15   85 1    
    33   16   17 1    
    34   17   18 1    
    35   17   86 1    
    36   17   87 1    
    37   18   19 1    
    38   18   37 1    
    39   18   88 1    
    40   19   20 am   BACKBONE|DICT|INTERRES
    41   19   89 1    
    42   20   21 2    
    43   20   22 1    
    44   22   23 1    
    45   22   24 1    
    46   22   90 1    
    47   23   91 1    
    48   23   92 1    
    49   23   93 1    
    50   24   25 am   BACKBONE|DICT|INTERRES
    51   24   94 1    
    52   25   26 2    
    53   25   27 1    
    54   27   28 1    
    55   27   29 1    
    56   27   95 1    
    57   28   96 1    
    58   28   97 1    
    59   28   98 1    
    60   29   30 am   BACKBONE|DICT|INTERRES
    61   29   99 1    
    62   30   31 2    
    63   30   32 1    
    64   32   33 1    
    65   32   34 1    
    66   32  100 1    
    67   33  101 1    
    68   33  102 1    
    69   33  103 1    
    70   34   35 am   BACKBONE|DICT|INTERRES
    71   34  104 1    
    72   35   36 2    
    73   37   38 2    
    74   37   39 am   BACKBONE|DICT|INTERRES
    75   39   40 1    
    76   39  105 1    
    77   40   41 1    
    78   40   42 1    
    79   40  106 1    
    80   41  107 1    
    81   41  108 1    
    82   41  109 1    
    83   42   43 2    
    84   42   44 am   BACKBONE|DICT|INTERRES
    85   44   45 1    
    86   44  110 1    
    87   45   46 1    
    88   45   47 1    
    89   45  111 1    
    90   46  112 1    
    91   46  113 1    
    92   46  114 1    
    93   47   48 2    
    94   47   49 am   BACKBONE|DICT|INTERRES
    95   49   50 1    
    96   49  115 1    
    97   50   51 1    
    98   50   52 1    
    99   50  116 1    
   100   51  117 1    
   101   51  118 1    
   102   51  119 1    
   103   52   53 2    
   104   52   54 am   BACKBONE|DICT|INTERRES
   105   54   55 1    
   106   54  120 1    
   107   55   56 1    
   108   55   57 1    
   109   55  121 1    
   110   56  122 1    
   111   56  123 1    
   112   56  124 1    
   113   57   58 2    
   114   57   59 am   BACKBONE|DICT|INTERRES
   115   59   60 1    
   116   59  125 1    
   117   60   61 1    
   118   60   62 1    
   119   60  126 1    
   120   61  127 1    
   121   61  128 1    
   122   61  129 1    
   123   62   63 2    
   124   62   64 am   BACKBONE|DICT|INTERRES
   125   64   65 1    
   126   64  130 1    
   127   65   66 1    
   128   65   69 1    
   129   65  131 1    
   130   66   67 am   BACKBONE|DICT|INTERRES
   131   66   68 2    
   132   67  132 1    
   133   67  133 1    
   134   69   70 1    
   135   69  134 1    
   136   69  135 1    
   137   70   71 1    
   138   71  136 1    
   139   71  137 1    
@<TRIPOS>SUBSTRUCTURE
     1 UNK         1 GROUP             0       ****    0 ROOT    
