@<TRIPOS>MOLECULE
3R136
137   139    1
SMALL
USER_CHARGES


@<TRIPOS>ATOM
      1 CA         26.1591   21.6320    1.6523 C.3       0 UNK        -0.1979 
      2 C          27.6140   21.3779    1.2865 C.2       0 UNK         0.4864 
      3 O          28.2277   20.4535    1.8223 O.2       0 UNK        -0.5359 
      4 N          28.1655   22.1912    0.3825 N.am      1 UNK        -0.4318 
      5 CA         29.5525   22.1301   -0.0768 C.3       1 UNK         0.0824 
      6 C6         30.5558   22.7809    0.9190 C.3       12 UNK        -0.0944 
      7 S7         30.1070   24.4712    1.4589 S.3       12 UNK        -0.2672 
      8 C8         29.8928   24.2022    3.2445 C.3       12 UNK         0.0333 
      9 C9         29.5838   25.4990    3.9764 C.ar      12 UNK        -0.0807 
     10 C10        30.5986   26.4359    4.1960 C.ar      12 UNK        -0.0894 
     11 C11        30.3382   27.6114    4.9059 C.ar      12 UNK        -0.0804 
     12 C12        29.0461   27.8552    5.3783 C.ar      12 UNK        -0.0824 
     13 C13        28.0188   26.9333    5.1550 C.ar      12 UNK        -0.0762 
     14 C14        28.2969   25.7494    4.4635 C.ar      12 UNK        -0.0782 
     15 C15        26.6216   27.2166    5.6906 C.3       12 UNK         0.0230 
     16 S16        25.8365   28.6099    4.8177 S.3       12 UNK        -0.2608 
     17 C17        24.9059   27.7710    3.4881 C.3       12 UNK        -0.0989 
     18 CA         25.7713   27.2158    2.3276 C.3       5 UNK         0.0716 
     19 N          24.9722   26.6685    1.2444 N.am      5 UNK        -0.4135 
     20 C          24.4076   25.4576    1.2225 C.2       4 UNK         0.5031 
     21 O          24.3206   24.7161    2.2015 O.2       4 UNK        -0.5229 
     22 CA         23.9142   24.9694   -0.1544 C.3       4 UNK         0.0329 
     23 CB         22.4617   25.4091   -0.3979 C.3       4 UNK        -0.2001 
     24 N          24.7639   25.4289   -1.2648 N.am      4 UNK        -0.4303 
     25 C          26.0717   25.1535   -1.3777 C.2       3 UNK         0.5044 
     26 O          26.6807   24.4113   -0.5992 O.2       3 UNK        -0.5152 
     27 CA         26.8368   25.8486   -2.5149 C.3       3 UNK         0.0319 
     28 CB         26.7794   27.3832   -2.3963 C.3       3 UNK        -0.2001 
     29 N          28.2225   25.4129   -2.4197 N.am      3 UNK        -0.4354 
     30 C          29.0685   25.1622   -3.4218 C.2       2 UNK         0.4964 
     31 O          28.8370   25.4230   -4.6028 O.2       2 UNK        -0.5047 
     32 CA         30.3978   24.4830   -3.0338 C.3       2 UNK         0.0288 
     33 CB         31.5327   25.5187   -2.9694 C.3       2 UNK        -0.2113 
     34 N          30.3316   23.7663   -1.7522 N.am      2 UNK        -0.4145 
     35 C          29.6021   22.6643   -1.5201 C.2       1 UNK         0.5006 
     36 O          28.9629   22.0779   -2.3964 O.2       1 UNK        -0.5103 
     37 C          26.6883   28.2484    1.6603 C.2       5 UNK         0.5055 
     38 O          26.2096   29.3102    1.2559 O.2       5 UNK        -0.5220 
     39 N          27.9747   27.9112    1.5055 N.am      6 UNK        -0.4450 
     40 CA         28.9875   28.7723    0.8921 C.3       6 UNK         0.0367 
     41 CB         30.0803   27.8956    0.2538 C.3       6 UNK        -0.1929 
     42 C          29.5535   29.7549    1.9303 C.2       6 UNK         0.5070 
     43 O          30.7485   29.7265    2.2165 O.2       6 UNK        -0.5237 
     44 N          28.6805   30.6074    2.4835 N.am      7 UNK        -0.4739 
     45 CA         28.9463   31.5239    3.6016 C.3       7 UNK         0.0276 
     46 CB         27.6567   32.2955    3.9243 C.3       7 UNK        -0.1927 
     47 C          30.1247   32.5005    3.4086 C.2       7 UNK         0.5013 
     48 O          30.6621   32.9944    4.4002 O.2       7 UNK        -0.5193 
     49 N          30.5023   32.7625    2.1507 N.am      8 UNK        -0.4253 
     50 CA         31.6587   33.5758    1.7748 C.3       8 UNK         0.0242 
     51 CB         31.4620   34.0789    0.3347 C.3       8 UNK        -0.2000 
     52 C          33.0078   32.8401    1.9054 C.2       8 UNK         0.4948 
     53 O          34.0408   33.5123    1.9213 O.2       8 UNK        -0.5275 
     54 N          33.0032   31.4991    1.9627 N.am      9 UNK        -0.4246 
     55 CA         34.2122   30.6806    2.0823 C.3       9 UNK         0.0261 
     56 CB         33.9141   29.2510    1.5978 C.3       9 UNK        -0.1959 
     57 C          34.7404   30.6632    3.5252 C.2       9 UNK         0.5033 
     58 O          33.9662   30.8043    4.4753 O.2       9 UNK        -0.5390 
     59 N          36.0525   30.4430    3.6696 N.am      10 UNK        -0.4215 
     60 CA         36.7608   30.3652    4.9503 C.3       10 UNK         0.0240 
     61 CB         38.2439   30.7144    4.7203 C.3       10 UNK        -0.1982 
     62 C          36.5714   28.9963    5.6352 C.2       10 UNK         0.4970 
     63 O          37.5486   28.2818    5.8669 O.2       10 UNK        -0.4916 
     64 N          35.3150   28.6505    5.9369 N.am      11 UNK        -0.4279 
     65 CA         34.9233   27.4266    6.6557 C.3       11 UNK         0.1003 
     66 C          35.2422   27.4250    8.1809 C.2       11 UNK         0.5709 
     67 N          35.6137   28.5468    8.7873 N.am      11 UNK        -0.7358 
     68 O          35.1673   26.3794    8.8222 O.2       11 UNK        -0.4999 
     69 C69        33.4508   27.0324    6.3637 C.3       12 UNK        -0.0954 
     70 S70        32.2452   28.3439    6.7726 S.3       12 UNK        -0.2268 
     71 C71        31.4447   28.6239    5.1637 C.3       12 UNK         0.0203 
     72 H72        25.7192   22.4193    1.0409 H         1 UNK         0.0888 
     73 H73        25.5703   20.7260    1.5118 H         1 UNK         0.0888 
     74 H74        26.0812   21.9338    2.6965 H         1 UNK         0.0888 
     75 H75        27.6077   22.9408   -0.0264 H         1 UNK         0.3017 
     76 H76        29.8284   21.0770   -0.1666 H         1 UNK         0.0873 
     77 H77        30.6314   22.1401    1.7988 H         1 UNK         0.0745 
     78 H78        31.5649   22.7970    0.5031 H         1 UNK         0.0745 
     79 H79        29.0996   23.4696    3.4028 H         1 UNK         0.0705 
     80 H80        30.8043   23.7666    3.6569 H         1 UNK         0.0705 
     81 H81        31.5932   26.2433    3.8186 H         1 UNK         0.1334 
     82 H82        28.8379   28.7650    5.9247 H         1 UNK         0.1417 
     83 H83        27.5132   25.0199    4.3078 H         1 UNK         0.1562 
     84 H84        26.6958   27.4670    6.7498 H         1 UNK         0.0748 
     85 H85        25.9868   26.3311    5.6324 H         1 UNK         0.0748 
     86 H86        24.1795   28.4858    3.0970 H         1 UNK         0.0940 
     87 H87        24.3168   26.9667    3.9312 H         1 UNK         0.0940 
     88 H88        26.3907   26.4081    2.7146 H         1 UNK         0.0703 
     89 H89        24.9821   27.2148    0.3942 H         1 UNK         0.3081 
     90 H90        23.9442   23.8779   -0.1453 H         1 UNK         0.0719 
     91 H91        22.3683   26.4947   -0.4469 H         1 UNK         0.0809 
     92 H92        22.0722   24.9953   -1.3283 H         1 UNK         0.0809 
     93 H93        21.8103   25.0621    0.4057 H         1 UNK         0.0809 
     94 H94        24.3291   26.0261   -1.9538 H         1 UNK         0.2990 
     95 H95        26.4075   25.5268   -3.4659 H         1 UNK         0.0690 
     96 H96        25.7614   27.7565   -2.5107 H         1 UNK         0.0788 
     97 H97        27.3820   27.8594   -3.1700 H         1 UNK         0.0788 
     98 H98        27.1506   27.7271   -1.4306 H         1 UNK         0.0788 
     99 H99        28.4729   25.0898   -1.4939 H         1 UNK         0.2993 
    100 H100       30.6329   23.7581   -3.8161 H         1 UNK         0.0949 
    101 H101       32.4935   25.0427   -2.7721 H         1 UNK         0.0767 
    102 H102       31.6265   26.0542   -3.9153 H         1 UNK         0.0767 
    103 H103       31.3590   26.2618   -2.1901 H         1 UNK         0.0767 
    104 H104       30.8044   24.1919   -0.9657 H         1 UNK         0.3013 
    105 H105       28.3101   27.0415    1.8973 H         1 UNK         0.3121 
    106 H106       28.5311   29.3622    0.0942 H         1 UNK         0.0774 
    107 H107       30.8049   28.5084   -0.2838 H         1 UNK         0.0815 
    108 H108       30.6324   27.3306    1.0054 H         1 UNK         0.0815 
    109 H109       29.6589   27.1887   -0.4602 H         1 UNK         0.0815 
    110 H110       27.7162   30.5367    2.1774 H         1 UNK         0.2987 
    111 H111       29.1910   30.9053    4.4660 H         1 UNK         0.0949 
    112 H112       27.3314   32.9062    3.0812 H         1 UNK         0.0806 
    113 H113       26.8427   31.6177    4.1830 H         1 UNK         0.0806 
    114 H114       27.8013   32.9631    4.7750 H         1 UNK         0.0806 
    115 H115       30.0005   32.3045    1.4042 H         1 UNK         0.3010 
    116 H116       31.6993   34.4450    2.4351 H         1 UNK         0.0829 
    117 H117       30.5474   34.6644    0.2394 H         1 UNK         0.0813 
    118 H118       32.2887   34.7220    0.0292 H         1 UNK         0.0813 
    119 H119       31.4108   33.2546   -0.3779 H         1 UNK         0.0813 
    120 H120       32.1187   30.9992    2.0255 H         1 UNK         0.3038 
    121 H121       34.9815   31.1064    1.4342 H         1 UNK         0.0769 
    122 H122       33.1926   28.7460    2.2397 H         1 UNK         0.0811 
    123 H123       34.8190   28.6423    1.5888 H         1 UNK         0.0811 
    124 H124       33.5132   29.2504    0.5841 H         1 UNK         0.0811 
    125 H125       36.6110   30.2915    2.8415 H         1 UNK         0.3204 
    126 H126       36.3483   31.1191    5.6245 H         1 UNK         0.0748 
    127 H127       38.7985   30.7041    5.6597 H         1 UNK         0.0771 
    128 H128       38.7283   30.0056    4.0473 H         1 UNK         0.0771 
    129 H129       38.3549   31.7116    4.2938 H         1 UNK         0.0771 
    130 H130       34.5674   29.2939    5.6955 H         1 UNK         0.2980 
    131 H131       35.5361   26.6205    6.2478 H         1 UNK         0.0545 
    132 H132       35.6683   29.4110    8.2740 H         1 UNK         0.3459 
    133 H133       35.8233   28.5289    9.7728 H         1 UNK         0.3459 
    134 H134       33.3607   26.7735    5.3088 H         1 UNK         0.0616 
    135 H135       33.1731   26.1272    6.9065 H         1 UNK         0.0616 
    136 H136       32.1871   28.5968    4.3663 H         1 UNK         0.0634 
    137 H137       31.0354   29.6339    5.1522 H         1 UNK         0.0634 
@<TRIPOS>BOND
     1    1    2 1    
     2    1   72 1    
     3    1   73 1    
     4    1   74 1    
     5    2    3 2    
     6    2    4 am   BACKBONE|DICT|INTERRES
     7    4    5 1    
     8    4   75 1    
     9    5    6 1    
    10    5   35 1    
    11    5   76 1    
    12    6    7 1    
    13    6   77 1    
    14    6   78 1    
    15    7    8 1    
    16    8    9 1    
    17    8   79 1    
    18    8   80 1    
    19    9   10 ar   
    20    9   14 ar   
    21   10   11 ar   
    22   10   81 1    
    23   11   12 ar   
    24   11   71 1    
    25   12   13 ar   
    26   12   82 1    
    27   13   14 ar   
    28   13   15 1    
    29   14   83 1    
    30   15   16 1    
    31   15   84 1    
    32   15   85 1    
    33   16   17 1    
    34   17   18 1    
    35   17   86 1    
    36   17   87 1    
    37   18   19 1    
    38   18   37 1    
    39   18   88 1    
    40   19   20 am   BACKBONE|DICT|INTERRES
    41   19   89 1    
    42   20   21 2    
    43   20   22 1    
    44   22   23 1    
    45   22   24 1    
    46   22   90 1    
    47   23   91 1    
    48   23   92 1    
    49   23   93 1    
    50   24   25 am   BACKBONE|DICT|INTERRES
    51   24   94 1    
    52   25   26 2    
    53   25   27 1    
    54   27   28 1    
    55   27   29 1    
    56   27   95 1    
    57   28   96 1    
    58   28   97 1    
    59   28   98 1    
    60   29   30 am   BACKBONE|DICT|INTERRES
    61   29   99 1    
    62   30   31 2    
    63   30   32 1    
    64   32   33 1    
    65   32   34 1    
    66   32  100 1    
    67   33  101 1    
    68   33  102 1    
    69   33  103 1    
    70   34   35 am   BACKBONE|DICT|INTERRES
    71   34  104 1    
    72   35   36 2    
    73   37   38 2    
    74   37   39 am   BACKBONE|DICT|INTERRES
    75   39   40 1    
    76   39  105 1    
    77   40   41 1    
    78   40   42 1    
    79   40  106 1    
    80   41  107 1    
    81   41  108 1    
    82   41  109 1    
    83   42   43 2    
    84   42   44 am   BACKBONE|DICT|INTERRES
    85   44   45 1    
    86   44  110 1    
    87   45   46 1    
    88   45   47 1    
    89   45  111 1    
    90   46  112 1    
    91   46  113 1    
    92   46  114 1    
    93   47   48 2    
    94   47   49 am   BACKBONE|DICT|INTERRES
    95   49   50 1    
    96   49  115 1    
    97   50   51 1    
    98   50   52 1    
    99   50  116 1    
   100   51  117 1    
   101   51  118 1    
   102   51  119 1    
   103   52   53 2    
   104   52   54 am   BACKBONE|DICT|INTERRES
   105   54   55 1    
   106   54  120 1    
   107   55   56 1    
   108   55   57 1    
   109   55  121 1    
   110   56  122 1    
   111   56  123 1    
   112   56  124 1    
   113   57   58 2    
   114   57   59 am   BACKBONE|DICT|INTERRES
   115   59   60 1    
   116   59  125 1    
   117   60   61 1    
   118   60   62 1    
   119   60  126 1    
   120   61  127 1    
   121   61  128 1    
   122   61  129 1    
   123   62   63 2    
   124   62   64 am   BACKBONE|DICT|INTERRES
   125   64   65 1    
   126   64  130 1    
   127   65   66 1    
   128   65   69 1    
   129   65  131 1    
   130   66   67 am   BACKBONE|DICT|INTERRES
   131   66   68 2    
   132   67  132 1    
   133   67  133 1    
   134   69   70 1    
   135   69  134 1    
   136   69  135 1    
   137   70   71 1    
   138   71  136 1    
   139   71  137 1    
@<TRIPOS>SUBSTRUCTURE
     1 UNK         1 GROUP             0       ****    0 ROOT    
