@<TRIPOS>MOLECULE
3R136
137   139    1
SMALL
USER_CHARGES


@<TRIPOS>ATOM
      1 CA         29.6218   19.7591   -3.7269 C.3       0 UNK        -0.1979 
      2 C          30.0562   21.0399   -3.0292 C.2       0 UNK         0.4864 
      3 O          31.1969   21.4731   -3.2014 O.2       0 UNK        -0.5359 
      4 N          29.1596   21.6434   -2.2377 N.am      1 UNK        -0.4318 
      5 CA         29.3808   22.9168   -1.5461 C.3       1 UNK         0.0824 
      6 C6         28.3727   23.0999   -0.3809 C.3       12 UNK        -0.0944 
      7 S7         29.0020   24.2035    0.9283 S.3       12 UNK        -0.2672 
      8 C8         29.9476   23.0039    1.9162 C.3       12 UNK         0.0333 
      9 C9         30.5504   23.6403    3.1579 C.ar      12 UNK        -0.0807 
     10 C10        31.6598   24.4847    3.0493 C.ar      12 UNK        -0.0894 
     11 C11        32.2509   25.0458    4.1863 C.ar      12 UNK        -0.0804 
     12 C12        31.7094   24.7458    5.4445 C.ar      12 UNK        -0.0824 
     13 C13        30.5960   23.9104    5.5664 C.ar      12 UNK        -0.0762 
     14 C14        30.0197   23.3589    4.4195 C.ar      12 UNK        -0.0782 
     15 C15        30.0139   23.6183    6.9416 C.3       12 UNK         0.0230 
     16 S16        29.1919   25.0830    7.6463 S.3       12 UNK        -0.2608 
     17 C17        27.7741   25.2952    6.5165 C.3       12 UNK        -0.0989 
     18 CA         28.0467   26.2725    5.3419 C.3       5 UNK         0.0716 
     19 N          27.0691   26.0677    4.2610 N.am      5 UNK        -0.4135 
     20 C          27.0532   26.7274    3.0969 C.2       4 UNK         0.5031 
     21 O          27.8093   27.6643    2.8336 O.2       4 UNK        -0.5229 
     22 CA         25.9920   26.3202    2.0687 C.3       4 UNK         0.0329 
     23 CB         24.5984   26.8209    2.4982 C.3       4 UNK        -0.2001 
     24 N          26.3814   26.9191    0.7953 N.am      4 UNK        -0.4303 
     25 C          25.8768   26.6630   -0.4146 C.2       3 UNK         0.5044 
     26 O          24.9886   25.8407   -0.6383 O.2       3 UNK        -0.5152 
     27 CA         26.5055   27.4416   -1.5747 C.3       3 UNK         0.0319 
     28 CB         26.4873   28.9670   -1.3391 C.3       3 UNK        -0.2001 
     29 N          27.8661   26.9552   -1.7813 N.am      3 UNK        -0.4354 
     30 C          28.6105   27.1635   -2.8752 C.2       2 UNK         0.4964 
     31 O          28.2570   27.8577   -3.8289 O.2       2 UNK        -0.5047 
     32 CA         29.9817   26.4636   -2.9244 C.3       2 UNK         0.0288 
     33 CB         31.0804   27.3933   -2.3835 C.3       2 UNK        -0.2113 
     34 N          30.0088   25.1978   -2.1845 N.am      2 UNK        -0.4145 
     35 C          29.3222   24.1003   -2.5335 C.2       1 UNK         0.5006 
     36 O          28.6333   24.0185   -3.5548 O.2       1 UNK        -0.5103 
     37 C          28.1696   27.7395    5.8207 C.2       5 UNK         0.5055 
     38 O          29.2778   28.2025    6.0931 O.2       5 UNK        -0.5220 
     39 N          27.0362   28.4513    5.8817 N.am      6 UNK        -0.4450 
     40 CA         26.9684   29.8626    6.2688 C.3       6 UNK         0.0367 
     41 CB         25.5984   30.1245    6.9183 C.3       6 UNK        -0.1929 
     42 C          27.1981   30.8406    5.0991 C.2       6 UNK         0.5070 
     43 O          27.3416   32.0370    5.3542 O.2       6 UNK        -0.5237 
     44 N          27.1847   30.3488    3.8523 N.am      7 UNK        -0.4739 
     45 CA         27.2117   31.1670    2.6351 C.3       7 UNK         0.0276 
     46 CB         26.0053   30.7854    1.7618 C.3       7 UNK        -0.1927 
     47 C          28.5187   31.0288    1.8379 C.2       7 UNK         0.5013 
     48 O          28.8807   31.9680    1.1278 O.2       7 UNK        -0.5193 
     49 N          29.1943   29.8761    1.9437 N.am      8 UNK        -0.4253 
     50 CA         30.4665   29.5697    1.2902 C.3       8 UNK         0.0242 
     51 CB         30.8238   28.0946    1.5497 C.3       8 UNK        -0.2000 
     52 C          31.5842   30.4930    1.7957 C.2       8 UNK         0.4948 
     53 O          31.8705   30.4914    2.9942 O.2       8 UNK        -0.5275 
     54 N          32.2128   31.2429    0.8799 N.am      9 UNK        -0.4246 
     55 CA         33.2271   32.2676    1.1696 C.3       9 UNK         0.0261 
     56 CB         33.6337   32.9584   -0.1425 C.3       9 UNK        -0.1959 
     57 C          34.4754   31.7630    1.9186 C.2       9 UNK         0.5033 
     58 O          35.1395   32.5578    2.5853 O.2       9 UNK        -0.5390 
     59 N          34.7634   30.4598    1.8099 N.am      10 UNK        -0.4215 
     60 CA         35.8284   29.7748    2.5405 C.3       10 UNK         0.0240 
     61 CB         36.0733   28.4007    1.8941 C.3       10 UNK        -0.1982 
     62 C          35.5460   29.6106    4.0465 C.2       10 UNK         0.4970 
     63 O          36.5072   29.4711    4.8046 O.2       10 UNK        -0.4916 
     64 N          34.2666   29.6023    4.4505 N.am      11 UNK        -0.4279 
     65 CA         33.8283   29.3366    5.8325 C.3       11 UNK         0.1003 
     66 C          32.9385   30.4597    6.4309 C.2       11 UNK         0.5709 
     67 N          32.2659   31.2812    5.6358 N.am      11 UNK        -0.7358 
     68 O          32.8810   30.6076    7.6496 O.2       11 UNK        -0.4999 
     69 C69        33.1393   27.9520    5.9644 C.3       12 UNK        -0.0954 
     70 S70        34.2548   26.5750    5.5218 S.3       12 UNK        -0.2268 
     71 C71        33.4719   25.9508    3.9940 C.3       12 UNK         0.0203 
     72 H72        30.2745   18.9352   -3.4397 H         1 UNK         0.0888 
     73 H73        28.5979   19.4841   -3.4745 H         1 UNK         0.0888 
     74 H74        29.6829   19.8821   -4.8079 H         1 UNK         0.0888 
     75 H75        28.2279   21.2604   -2.1656 H         1 UNK         0.3017 
     76 H76        30.3909   22.8776   -1.1319 H         1 UNK         0.0873 
     77 H77        27.4136   23.4827   -0.7373 H         1 UNK         0.0745 
     78 H78        28.1442   22.1369    0.0791 H         1 UNK         0.0745 
     79 H79        29.2967   22.1733    2.1940 H         1 UNK         0.0705 
     80 H80        30.7455   22.5779    1.3064 H         1 UNK         0.0705 
     81 H81        32.0681   24.7008    2.0712 H         1 UNK         0.1334 
     82 H82        32.1341   25.1638    6.3453 H         1 UNK         0.1417 
     83 H83        29.1595   22.7093    4.5088 H         1 UNK         0.1562 
     84 H84        30.8166   23.3078    7.6120 H         1 UNK         0.0748 
     85 H85        29.3094   22.7859    6.9037 H         1 UNK         0.0748 
     86 H86        26.9122   25.6244    7.1002 H         1 UNK         0.0940 
     87 H87        27.5051   24.3100    6.1325 H         1 UNK         0.0940 
     88 H88        29.0132   26.0239    4.9016 H         1 UNK         0.0703 
     89 H89        26.3974   25.3274    4.4018 H         1 UNK         0.3081 
     90 H90        25.9933   25.2330    1.9676 H         1 UNK         0.0719 
     91 H91        24.5747   27.9061    2.6053 H         1 UNK         0.0809 
     92 H92        23.8325   26.5425    1.7743 H         1 UNK         0.0809 
     93 H93        24.3000   26.3911    3.4549 H         1 UNK         0.0809 
     94 H94        27.1465   27.5758    0.8925 H         1 UNK         0.2990 
     95 H95        25.9179   27.2226   -2.4690 H         1 UNK         0.0690 
     96 H96        26.7285   29.5100   -2.2528 H         1 UNK         0.0788 
     97 H97        27.2078   29.2715   -0.5798 H         1 UNK         0.0788 
     98 H98        25.5004   29.3044   -1.0197 H         1 UNK         0.0788 
     99 H99        28.2256   26.3390   -1.0649 H         1 UNK         0.2993 
    100 H100       30.2001   26.2460   -3.9724 H         1 UNK         0.0949 
    101 H101       32.0674   26.9403   -2.4790 H         1 UNK         0.0767 
    102 H102       31.1022   28.3336   -2.9365 H         1 UNK         0.0767 
    103 H103       30.9217   27.6372   -1.3334 H         1 UNK         0.0767 
    104 H104       30.5424   25.1837   -1.3268 H         1 UNK         0.3013 
    105 H105       26.1665   28.0026    5.6334 H         1 UNK         0.3121 
    106 H106       27.7386   30.0672    7.0159 H         1 UNK         0.0774 
    107 H107       25.5198   31.1564    7.2636 H         1 UNK         0.0815 
    108 H108       24.7794   29.9529    6.2186 H         1 UNK         0.0815 
    109 H109       25.4409   29.4835    7.7859 H         1 UNK         0.0815 
    110 H110       27.1530   29.3441    3.7231 H         1 UNK         0.2987 
    111 H111       27.1132   32.2253    2.8868 H         1 UNK         0.0949 
    112 H112       26.0016   29.7229    1.5215 H         1 UNK         0.0806 
    113 H113       25.0667   31.0141    2.2667 H         1 UNK         0.0806 
    114 H114       26.0086   31.3379    0.8210 H         1 UNK         0.0806 
    115 H115       28.7971   29.1312    2.5109 H         1 UNK         0.3010 
    116 H116       30.3361   29.7126    0.2156 H         1 UNK         0.0829 
    117 H117       30.0709   27.4236    1.1355 H         1 UNK         0.0813 
    118 H118       31.7794   27.8320    1.0947 H         1 UNK         0.0813 
    119 H119       30.9006   27.8814    2.6174 H         1 UNK         0.0813 
    120 H120       31.9100   31.1790   -0.0817 H         1 UNK         0.3038 
    121 H121       32.7534   33.0118    1.8133 H         1 UNK         0.0769 
    122 H122       34.0808   32.2560   -0.8471 H         1 UNK         0.0811 
    123 H123       34.3661   33.7462    0.0408 H         1 UNK         0.0811 
    124 H124       32.7768   33.4251   -0.6290 H         1 UNK         0.0811 
    125 H125       34.1676   29.8909    1.2271 H         1 UNK         0.3204 
    126 H126       36.7415   30.3659    2.4419 H         1 UNK         0.0748 
    127 H127       36.3605   28.4991    0.8470 H         1 UNK         0.0771 
    128 H128       36.8805   27.8693    2.4006 H         1 UNK         0.0771 
    129 H129       35.1871   27.7667    1.9429 H         1 UNK         0.0771 
    130 H130       33.5249   29.7916    3.7848 H         1 UNK         0.2980 
    131 H131       34.7040   29.3136    6.4835 H         1 UNK         0.0545 
    132 H132       31.7067   32.0101    6.0472 H         1 UNK         0.3459 
    133 H133       32.2049   31.1020    4.6359 H         1 UNK         0.3459 
    134 H134       32.2369   27.9139    5.3506 H         1 UNK         0.0616 
    135 H135       32.8111   27.7840    6.9918 H         1 UNK         0.0616 
    136 H136       33.1978   26.7990    3.3651 H         1 UNK         0.0634 
    137 H137       34.2291   25.3920    3.4424 H         1 UNK         0.0634 
@<TRIPOS>BOND
     1    1    2 1    
     2    1   72 1    
     3    1   73 1    
     4    1   74 1    
     5    2    3 2    
     6    2    4 am   BACKBONE|DICT|INTERRES
     7    4    5 1    
     8    4   75 1    
     9    5    6 1    
    10    5   35 1    
    11    5   76 1    
    12    6    7 1    
    13    6   77 1    
    14    6   78 1    
    15    7    8 1    
    16    8    9 1    
    17    8   79 1    
    18    8   80 1    
    19    9   10 ar   
    20    9   14 ar   
    21   10   11 ar   
    22   10   81 1    
    23   11   12 ar   
    24   11   71 1    
    25   12   13 ar   
    26   12   82 1    
    27   13   14 ar   
    28   13   15 1    
    29   14   83 1    
    30   15   16 1    
    31   15   84 1    
    32   15   85 1    
    33   16   17 1    
    34   17   18 1    
    35   17   86 1    
    36   17   87 1    
    37   18   19 1    
    38   18   37 1    
    39   18   88 1    
    40   19   20 am   BACKBONE|DICT|INTERRES
    41   19   89 1    
    42   20   21 2    
    43   20   22 1    
    44   22   23 1    
    45   22   24 1    
    46   22   90 1    
    47   23   91 1    
    48   23   92 1    
    49   23   93 1    
    50   24   25 am   BACKBONE|DICT|INTERRES
    51   24   94 1    
    52   25   26 2    
    53   25   27 1    
    54   27   28 1    
    55   27   29 1    
    56   27   95 1    
    57   28   96 1    
    58   28   97 1    
    59   28   98 1    
    60   29   30 am   BACKBONE|DICT|INTERRES
    61   29   99 1    
    62   30   31 2    
    63   30   32 1    
    64   32   33 1    
    65   32   34 1    
    66   32  100 1    
    67   33  101 1    
    68   33  102 1    
    69   33  103 1    
    70   34   35 am   BACKBONE|DICT|INTERRES
    71   34  104 1    
    72   35   36 2    
    73   37   38 2    
    74   37   39 am   BACKBONE|DICT|INTERRES
    75   39   40 1    
    76   39  105 1    
    77   40   41 1    
    78   40   42 1    
    79   40  106 1    
    80   41  107 1    
    81   41  108 1    
    82   41  109 1    
    83   42   43 2    
    84   42   44 am   BACKBONE|DICT|INTERRES
    85   44   45 1    
    86   44  110 1    
    87   45   46 1    
    88   45   47 1    
    89   45  111 1    
    90   46  112 1    
    91   46  113 1    
    92   46  114 1    
    93   47   48 2    
    94   47   49 am   BACKBONE|DICT|INTERRES
    95   49   50 1    
    96   49  115 1    
    97   50   51 1    
    98   50   52 1    
    99   50  116 1    
   100   51  117 1    
   101   51  118 1    
   102   51  119 1    
   103   52   53 2    
   104   52   54 am   BACKBONE|DICT|INTERRES
   105   54   55 1    
   106   54  120 1    
   107   55   56 1    
   108   55   57 1    
   109   55  121 1    
   110   56  122 1    
   111   56  123 1    
   112   56  124 1    
   113   57   58 2    
   114   57   59 am   BACKBONE|DICT|INTERRES
   115   59   60 1    
   116   59  125 1    
   117   60   61 1    
   118   60   62 1    
   119   60  126 1    
   120   61  127 1    
   121   61  128 1    
   122   61  129 1    
   123   62   63 2    
   124   62   64 am   BACKBONE|DICT|INTERRES
   125   64   65 1    
   126   64  130 1    
   127   65   66 1    
   128   65   69 1    
   129   65  131 1    
   130   66   67 am   BACKBONE|DICT|INTERRES
   131   66   68 2    
   132   67  132 1    
   133   67  133 1    
   134   69   70 1    
   135   69  134 1    
   136   69  135 1    
   137   70   71 1    
   138   71  136 1    
   139   71  137 1    
@<TRIPOS>SUBSTRUCTURE
     1 UNK         1 GROUP             0       ****    0 ROOT    
