@<TRIPOS>MOLECULE
3R136
137   139    1
SMALL
USER_CHARGES


@<TRIPOS>ATOM
      1 CA         28.1916   17.4059   -1.0140 C.3       0 UNK        -0.1979 
      2 C          28.4047   18.8992   -0.8135 C.2       0 UNK         0.4864 
      3 O          28.3272   19.6630   -1.7777 O.2       0 UNK        -0.5359 
      4 N          28.6809   19.3188    0.4278 N.am      1 UNK        -0.4318 
      5 CA         28.8669   20.7204    0.8144 C.3       1 UNK         0.0824 
      6 C6         29.4259   20.8364    2.2547 C.3       12 UNK        -0.0944 
      7 S7         31.1819   20.3751    2.3937 S.3       12 UNK        -0.2672 
      8 C8         31.6059   21.0942    4.0188 C.3       12 UNK         0.0333 
      9 C9         31.5800   22.6182    3.9991 C.ar      12 UNK        -0.0807 
     10 C10        32.6669   23.3319    3.4859 C.ar      12 UNK        -0.0894 
     11 C11        32.6347   24.7286    3.4199 C.ar      12 UNK        -0.0804 
     12 C12        31.4929   25.4089    3.8587 C.ar      12 UNK        -0.0824 
     13 C13        30.4056   24.7085    4.3891 C.ar      12 UNK        -0.0762 
     14 C14        30.4645   23.3148    4.4767 C.ar      12 UNK        -0.0782 
     15 C15        29.1511   25.4514    4.8240 C.3       12 UNK         0.0230 
     16 S16        27.8744   25.3109    3.5350 S.3       12 UNK        -0.2608 
     17 C17        26.8904   26.8330    3.7314 C.3       12 UNK        -0.0989 
     18 CA         27.6489   28.1404    3.3823 C.3       5 UNK         0.0716 
     19 N          28.4882   28.0324    2.1819 N.am      5 UNK        -0.4135 
     20 C          29.3909   28.9461    1.7957 C.2       4 UNK         0.5031 
     21 O          29.5863   30.0062    2.3932 O.2       4 UNK        -0.5229 
     22 CA         30.2344   28.6358    0.5499 C.3       4 UNK         0.0329 
     23 CB         31.5588   27.9800    0.9704 C.3       4 UNK        -0.2001 
     24 N          29.5795   27.7762   -0.4378 N.am      4 UNK        -0.4303 
     25 C          28.4318   28.0334   -1.0823 C.2       3 UNK         0.5044 
     26 O          27.7466   29.0388   -0.8951 O.2       3 UNK        -0.5152 
     27 CA         27.9637   26.9662   -2.0899 C.3       3 UNK         0.0319 
     28 CB         28.4763   27.2971   -3.5005 C.3       3 UNK        -0.2001 
     29 N          28.3938   25.6116   -1.7173 N.am      3 UNK        -0.4354 
     30 C          27.8826   24.9323   -0.6824 C.2       2 UNK         0.4964 
     31 O          26.9475   25.3463    0.0081 O.2       2 UNK        -0.5047 
     32 CA         28.5534   23.5991   -0.3241 C.3       2 UNK         0.0288 
     33 CB         29.7809   23.8687    0.5783 C.3       2 UNK        -0.2113 
     34 N          27.5256   22.7802    0.3241 N.am      2 UNK        -0.4145 
     35 C          27.5380   21.5060    0.7384 C.2       1 UNK         0.5006 
     36 O          26.5078   20.9576    1.1353 O.2       1 UNK        -0.5103 
     37 C          26.6715   29.3299    3.3123 C.2       5 UNK         0.5055 
     38 O          26.4261   29.9692    4.3358 O.2       5 UNK        -0.5220 
     39 N          26.1812   29.6445    2.1031 N.am      6 UNK        -0.4450 
     40 CA         25.3184   30.7974    1.8222 C.3       6 UNK         0.0367 
     41 CB         24.7645   30.6765    0.3937 C.3       6 UNK        -0.1929 
     42 C          26.0258   32.1529    2.0117 C.2       6 UNK         0.5070 
     43 O          25.3526   33.1592    2.2321 O.2       6 UNK        -0.5237 
     44 N          27.3632   32.1502    1.9503 N.am      7 UNK        -0.4739 
     45 CA         28.2359   33.2956    2.2049 C.3       7 UNK         0.0276 
     46 CB         29.2989   33.3447    1.0941 C.3       7 UNK        -0.1927 
     47 C          28.8627   33.2320    3.6135 C.2       7 UNK         0.5013 
     48 O          29.8996   33.8561    3.8390 O.2       7 UNK        -0.5193 
     49 N          28.2269   32.4869    4.5331 N.am      8 UNK        -0.4253 
     50 CA         28.6163   32.2640    5.9314 C.3       8 UNK         0.0242 
     51 CB         28.5925   33.5811    6.7378 C.3       8 UNK        -0.2000 
     52 C          29.9397   31.4865    6.0692 C.2       8 UNK         0.4948 
     53 O          30.7810   31.8410    6.8968 O.2       8 UNK        -0.5275 
     54 N          30.0758   30.4272    5.2582 N.am      9 UNK        -0.4246 
     55 CA         31.2160   29.5090    5.1603 C.3       9 UNK         0.0261 
     56 CB         31.4566   28.7484    6.4814 C.3       9 UNK        -0.1959 
     57 C          32.4708   30.2087    4.6128 C.2       9 UNK         0.5033 
     58 O          33.5494   30.1154    5.2034 O.2       9 UNK        -0.5390 
     59 N          32.3127   30.8836    3.4662 N.am      10 UNK        -0.4215 
     60 CA         33.3952   31.5364    2.7232 C.3       10 UNK         0.0240 
     61 CB         32.8040   32.6467    1.8370 C.3       10 UNK        -0.1982 
     62 C          34.2069   30.5079    1.9117 C.2       10 UNK         0.4970 
     63 O          34.1883   30.5373    0.6801 O.2       10 UNK        -0.4916 
     64 N          34.8676   29.5862    2.6209 N.am      11 UNK        -0.4279 
     65 CA         35.6286   28.4630    2.0498 C.3       11 UNK         0.1003 
     66 C          36.9398   28.8609    1.3102 C.2       11 UNK         0.5709 
     67 N          37.4527   30.0757    1.4674 N.am      11 UNK        -0.7358 
     68 O          37.4991   28.0502    0.5757 O.2       11 UNK        -0.4999 
     69 C69        35.9111   27.3590    3.1035 C.3       12 UNK        -0.0954 
     70 S70        34.4210   26.7812    3.9822 S.3       12 UNK        -0.2268 
     71 C71        33.8226   25.4915    2.8461 C.3       12 UNK         0.0203 
     72 H72        28.9150   17.0164   -1.7297 H         1 UNK         0.0888 
     73 H73        28.3024   16.8495   -0.0833 H         1 UNK         0.0888 
     74 H74        27.1914   17.2190   -1.4037 H         1 UNK         0.0888 
     75 H75        28.7224   18.6493    1.1825 H         1 UNK         0.3017 
     76 H76        29.5760   21.1397    0.1026 H         1 UNK         0.0873 
     77 H77        29.3253   21.8628    2.6036 H         1 UNK         0.0745 
     78 H78        28.8440   20.2289    2.9507 H         1 UNK         0.0745 
     79 H79        30.9212   20.7072    4.7750 H         1 UNK         0.0705 
     80 H80        32.6008   20.7514    4.3063 H         1 UNK         0.0705 
     81 H81        33.5321   22.7937    3.1230 H         1 UNK         0.1334 
     82 H82        31.4535   26.4859    3.7853 H         1 UNK         0.1417 
     83 H83        29.6183   22.7707    4.8742 H         1 UNK         0.1562 
     84 H84        29.3867   26.4969    5.0207 H         1 UNK         0.0748 
     85 H85        28.7710   25.0386    5.7596 H         1 UNK         0.0748 
     86 H86        26.5098   26.8751    4.7540 H         1 UNK         0.0940 
     87 H87        26.0144   26.7179    3.0893 H         1 UNK         0.0940 
     88 H88        28.3242   28.3531    4.2119 H         1 UNK         0.0703 
     89 H89        28.3896   27.1804    1.6474 H         1 UNK         0.3081 
     90 H90        30.4565   29.5901    0.0679 H         1 UNK         0.0719 
     91 H91        31.4047   26.9593    1.3206 H         1 UNK         0.0809 
     92 H92        32.2664   27.9480    0.1416 H         1 UNK         0.0809 
     93 H93        32.0392   28.5295    1.7794 H         1 UNK         0.0809 
     94 H94        30.0645   26.9254   -0.6790 H         1 UNK         0.2990 
     95 H95        26.8718   26.9891   -2.1109 H         1 UNK         0.0690 
     96 H96        28.0944   26.5900   -4.2372 H         1 UNK         0.0788 
     97 H97        29.5658   27.2810   -3.5515 H         1 UNK         0.0788 
     98 H98        28.1505   28.2914   -3.8096 H         1 UNK         0.0788 
     99 H99        29.1490   25.2067   -2.2530 H         1 UNK         0.2993 
    100 H100       28.8657   23.1086   -1.2480 H         1 UNK         0.0949 
    101 H101       30.4699   23.0286    0.6299 H         1 UNK         0.0767 
    102 H102       30.3720   24.7064    0.2070 H         1 UNK         0.0767 
    103 H103       29.4897   24.1153    1.5962 H         1 UNK         0.0767 
    104 H104       26.6505   23.2855    0.3942 H         1 UNK         0.3013 
    105 H105       26.4689   29.0926    1.3053 H         1 UNK         0.3121 
    106 H106       24.4790   30.7671    2.5203 H         1 UNK         0.0774 
    107 H107       25.5617   30.6953   -0.3507 H         1 UNK         0.0815 
    108 H108       24.0876   31.5012    0.1665 H         1 UNK         0.0815 
    109 H109       24.2025   29.7519    0.2613 H         1 UNK         0.0815 
    110 H110       27.8373   31.2685    1.7981 H         1 UNK         0.2987 
    111 H111       27.6625   34.2239    2.1623 H         1 UNK         0.0949 
    112 H112       29.8808   32.4245    1.0639 H         1 UNK         0.0806 
    113 H113       28.8380   33.4768    0.1152 H         1 UNK         0.0806 
    114 H114       29.9918   34.1747    1.2370 H         1 UNK         0.0806 
    115 H115       27.3978   31.9864    4.2355 H         1 UNK         0.3010 
    116 H116       27.8474   31.6149    6.3538 H         1 UNK         0.0829 
    117 H117       29.3772   34.2681    6.4196 H         1 UNK         0.0813 
    118 H118       27.6356   34.0926    6.6348 H         1 UNK         0.0813 
    119 H119       28.7435   33.3893    7.8008 H         1 UNK         0.0813 
    120 H120       29.3681   30.3022    4.5456 H         1 UNK         0.3038 
    121 H121       30.9423   28.7624    4.4151 H         1 UNK         0.0769 
    122 H122       32.2232   27.9830    6.3518 H         1 UNK         0.0811 
    123 H123       31.7946   29.4108    7.2786 H         1 UNK         0.0811 
    124 H124       30.5514   28.2460    6.8218 H         1 UNK         0.0811 
    125 H125       31.3947   30.8799    3.0343 H         1 UNK         0.3204 
    126 H126       34.0765   32.0091    3.4339 H         1 UNK         0.0748 
    127 H127       33.5951   33.2072    1.3375 H         1 UNK         0.0771 
    128 H128       32.1571   32.2398    1.0602 H         1 UNK         0.0771 
    129 H129       32.2246   33.3590    2.4244 H         1 UNK         0.0771 
    130 H130       34.7820   29.6081    3.6317 H         1 UNK         0.2980 
    131 H131       34.9901   28.0167    1.2851 H         1 UNK         0.0545 
    132 H132       38.2998   30.3211    0.9798 H         1 UNK         0.3459 
    133 H133       37.0024   30.7464    2.0684 H         1 UNK         0.3459 
    134 H134       36.3985   26.4984    2.6415 H         1 UNK         0.0616 
    135 H135       36.6090   27.7316    3.8554 H         1 UNK         0.0616 
    136 H136       34.6446   24.8080    2.6281 H         1 UNK         0.0634 
    137 H137       33.5370   25.9469    1.8979 H         1 UNK         0.0634 
@<TRIPOS>BOND
     1    1    2 1    
     2    1   72 1    
     3    1   73 1    
     4    1   74 1    
     5    2    3 2    
     6    2    4 am   BACKBONE|DICT|INTERRES
     7    4    5 1    
     8    4   75 1    
     9    5    6 1    
    10    5   35 1    
    11    5   76 1    
    12    6    7 1    
    13    6   77 1    
    14    6   78 1    
    15    7    8 1    
    16    8    9 1    
    17    8   79 1    
    18    8   80 1    
    19    9   10 ar   
    20    9   14 ar   
    21   10   11 ar   
    22   10   81 1    
    23   11   12 ar   
    24   11   71 1    
    25   12   13 ar   
    26   12   82 1    
    27   13   14 ar   
    28   13   15 1    
    29   14   83 1    
    30   15   16 1    
    31   15   84 1    
    32   15   85 1    
    33   16   17 1    
    34   17   18 1    
    35   17   86 1    
    36   17   87 1    
    37   18   19 1    
    38   18   37 1    
    39   18   88 1    
    40   19   20 am   BACKBONE|DICT|INTERRES
    41   19   89 1    
    42   20   21 2    
    43   20   22 1    
    44   22   23 1    
    45   22   24 1    
    46   22   90 1    
    47   23   91 1    
    48   23   92 1    
    49   23   93 1    
    50   24   25 am   BACKBONE|DICT|INTERRES
    51   24   94 1    
    52   25   26 2    
    53   25   27 1    
    54   27   28 1    
    55   27   29 1    
    56   27   95 1    
    57   28   96 1    
    58   28   97 1    
    59   28   98 1    
    60   29   30 am   BACKBONE|DICT|INTERRES
    61   29   99 1    
    62   30   31 2    
    63   30   32 1    
    64   32   33 1    
    65   32   34 1    
    66   32  100 1    
    67   33  101 1    
    68   33  102 1    
    69   33  103 1    
    70   34   35 am   BACKBONE|DICT|INTERRES
    71   34  104 1    
    72   35   36 2    
    73   37   38 2    
    74   37   39 am   BACKBONE|DICT|INTERRES
    75   39   40 1    
    76   39  105 1    
    77   40   41 1    
    78   40   42 1    
    79   40  106 1    
    80   41  107 1    
    81   41  108 1    
    82   41  109 1    
    83   42   43 2    
    84   42   44 am   BACKBONE|DICT|INTERRES
    85   44   45 1    
    86   44  110 1    
    87   45   46 1    
    88   45   47 1    
    89   45  111 1    
    90   46  112 1    
    91   46  113 1    
    92   46  114 1    
    93   47   48 2    
    94   47   49 am   BACKBONE|DICT|INTERRES
    95   49   50 1    
    96   49  115 1    
    97   50   51 1    
    98   50   52 1    
    99   50  116 1    
   100   51  117 1    
   101   51  118 1    
   102   51  119 1    
   103   52   53 2    
   104   52   54 am   BACKBONE|DICT|INTERRES
   105   54   55 1    
   106   54  120 1    
   107   55   56 1    
   108   55   57 1    
   109   55  121 1    
   110   56  122 1    
   111   56  123 1    
   112   56  124 1    
   113   57   58 2    
   114   57   59 am   BACKBONE|DICT|INTERRES
   115   59   60 1    
   116   59  125 1    
   117   60   61 1    
   118   60   62 1    
   119   60  126 1    
   120   61  127 1    
   121   61  128 1    
   122   61  129 1    
   123   62   63 2    
   124   62   64 am   BACKBONE|DICT|INTERRES
   125   64   65 1    
   126   64  130 1    
   127   65   66 1    
   128   65   69 1    
   129   65  131 1    
   130   66   67 am   BACKBONE|DICT|INTERRES
   131   66   68 2    
   132   67  132 1    
   133   67  133 1    
   134   69   70 1    
   135   69  134 1    
   136   69  135 1    
   137   70   71 1    
   138   71  136 1    
   139   71  137 1    
@<TRIPOS>SUBSTRUCTURE
     1 UNK         1 GROUP             0       ****    0 ROOT    
