@<TRIPOS>MOLECULE
3R136
137   139    1
SMALL
USER_CHARGES


@<TRIPOS>ATOM
      1 CA         25.9432   18.8983    3.9339 C.3       0 UNK        -0.1979 
      2 C          26.4670   19.6598    2.7250 C.2       0 UNK         0.4864 
      3 O          26.2913   19.2058    1.5930 O.2       0 UNK        -0.5359 
      4 N          27.1161   20.8079    2.9571 N.am      1 UNK        -0.4318 
      5 CA         27.6523   21.6976    1.9210 C.3       1 UNK         0.0824 
      6 C6         28.6182   22.7558    2.5089 C.3       12 UNK        -0.0944 
      7 S7         29.9766   22.0159    3.4770 S.3       12 UNK        -0.2672 
      8 C8         31.4192   22.2723    2.3910 C.3       12 UNK         0.0333 
      9 C9         31.9468   23.7051    2.3965 C.ar      12 UNK        -0.0807 
     10 C10        32.1558   24.3904    3.5988 C.ar      12 UNK        -0.0894 
     11 C11        32.6863   25.6838    3.6007 C.ar      12 UNK        -0.0804 
     12 C12        33.0237   26.2930    2.3878 C.ar      12 UNK        -0.0824 
     13 C13        32.8436   25.6108    1.1813 C.ar      12 UNK        -0.0762 
     14 C14        32.2926   24.3250    1.1915 C.ar      12 UNK        -0.0782 
     15 C15        33.2967   26.2292   -0.1328 C.3       12 UNK         0.0230 
     16 S16        31.9431   27.0888   -0.9905 S.3       12 UNK        -0.2608 
     17 C17        32.1675   28.8201   -0.4422 C.3       12 UNK        -0.0989 
     18 CA         30.8885   29.4693    0.1415 C.3       5 UNK         0.0716 
     19 N          29.7221   29.2663   -0.7192 N.am      5 UNK        -0.4135 
     20 C          28.5106   29.8044   -0.5393 C.2       4 UNK         0.5031 
     21 O          28.2389   30.5861    0.3724 O.2       4 UNK        -0.5229 
     22 CA         27.3928   29.3562   -1.4981 C.3       4 UNK         0.0329 
     23 CB         27.9038   28.6513   -2.7758 C.3       4 UNK        -0.2001 
     24 N          26.4016   28.5125   -0.8197 N.am      4 UNK        -0.4303 
     25 C          26.6305   27.3827   -0.1311 C.2       3 UNK         0.5044 
     26 O          27.7551   26.9245    0.0835 O.2       3 UNK        -0.5152 
     27 CA         25.4051   26.6367    0.4379 C.3       3 UNK         0.0319 
     28 CB         24.0416   27.2231    0.0044 C.3       3 UNK        -0.2001 
     29 N          25.4552   25.1984    0.1478 N.am      3 UNK        -0.4354 
     30 C          25.5574   24.6097   -1.0537 C.2       2 UNK         0.4964 
     31 O          25.6001   25.2287   -2.1190 O.2       2 UNK        -0.5047 
     32 CA         25.6107   23.0660   -1.0646 C.3       2 UNK         0.0288 
     33 CB         25.8382   22.4899   -2.4760 C.3       2 UNK        -0.2113 
     34 N          26.6284   22.5115   -0.1637 N.am      2 UNK        -0.4145 
     35 C          26.4994   22.3875    1.1637 C.2       1 UNK         0.5006 
     36 O          25.5290   22.8189    1.7938 O.2       1 UNK        -0.5103 
     37 C          30.6549   29.0577    1.6085 C.2       5 UNK         0.5055 
     38 O          31.1957   29.7160    2.4963 O.2       5 UNK        -0.5220 
     39 N          29.8359   28.0255    1.8546 N.am      6 UNK        -0.4450 
     40 CA         29.4733   27.5927    3.2052 C.3       6 UNK         0.0367 
     41 CB         28.9203   26.1636    3.1597 C.3       6 UNK        -0.1929 
     42 C          28.4698   28.5425    3.8760 C.2       6 UNK         0.5070 
     43 O          28.5401   28.7305    5.0896 O.2       6 UNK        -0.5237 
     44 N          27.5755   29.1456    3.0797 N.am      7 UNK        -0.4739 
     45 CA         26.6102   30.1490    3.5370 C.3       7 UNK         0.0276 
     46 CB         25.4682   30.2751    2.5158 C.3       7 UNK        -0.1927 
     47 C          27.2814   31.5083    3.7926 C.2       7 UNK         0.5013 
     48 O          26.9515   32.1746    4.7738 O.2       7 UNK        -0.5193 
     49 N          28.2373   31.8731    2.9266 N.am      8 UNK        -0.4253 
     50 CA         29.0860   33.0609    3.0563 C.3       8 UNK         0.0242 
     51 CB         29.7567   33.3369    1.7001 C.3       8 UNK        -0.2000 
     52 C          30.1560   32.9438    4.1600 C.2       8 UNK         0.4948 
     53 O          30.7377   33.9642    4.5302 O.2       8 UNK        -0.5275 
     54 N          30.4127   31.7162    4.6386 N.am      9 UNK        -0.4246 
     55 CA         31.4597   31.3216    5.5894 C.3       9 UNK         0.0261 
     56 CB         31.2324   31.9624    6.9749 C.3       9 UNK        -0.1959 
     57 C          32.8817   31.5527    5.0389 C.2       9 UNK         0.5033 
     58 O          33.7993   31.8722    5.7974 O.2       9 UNK        -0.5390 
     59 N          33.0513   31.3446    3.7277 N.am      10 UNK        -0.4215 
     60 CA         34.3164   31.4200    2.9986 C.3       10 UNK         0.0240 
     61 CB         34.0389   31.9529    1.5802 C.3       10 UNK        -0.1982 
     62 C          34.9882   30.0363    2.9983 C.2       10 UNK         0.4970 
     63 O          35.2258   29.4567    1.9370 O.2       10 UNK        -0.4916 
     64 N          35.2238   29.5127    4.2049 N.am      11 UNK        -0.4279 
     65 CA         35.7998   28.1890    4.4606 C.3       11 UNK         0.1003 
     66 C          37.3488   28.1638    4.3470 C.2       11 UNK         0.5709 
     67 N          37.9422   26.9786    4.3158 N.am      11 UNK        -0.7358 
     68 O          38.0182   29.1953    4.3074 O.2       11 UNK        -0.4999 
     69 C69        35.2786   27.6250    5.8156 C.3       12 UNK        -0.0954 
     70 S70        34.5300   25.9764    5.6283 S.3       12 UNK        -0.2268 
     71 C71        32.9089   26.4095    4.9177 C.3       12 UNK         0.0203 
     72 H72        24.8604   18.7941    3.8709 H         1 UNK         0.0888 
     73 H73        26.1813   19.4048    4.8691 H         1 UNK         0.0888 
     74 H74        26.3809   17.9010    3.9678 H         1 UNK         0.0888 
     75 H75        27.2273   21.1348    3.9059 H         1 UNK         0.3017 
     76 H76        28.2110   21.0808    1.2135 H         1 UNK         0.0873 
     77 H77        29.0373   23.3737    1.7124 H         1 UNK         0.0745 
     78 H78        28.0772   23.4342    3.1710 H         1 UNK         0.0745 
     79 H79        31.1612   21.9523    1.3803 H         1 UNK         0.0705 
     80 H80        32.2218   21.6136    2.7250 H         1 UNK         0.0705 
     81 H81        31.9131   23.9128    4.5381 H         1 UNK         0.1334 
     82 H82        33.4436   27.2895    2.3827 H         1 UNK         0.1417 
     83 H83        32.1597   23.7967    0.2570 H         1 UNK         0.1562 
     84 H84        33.6728   25.4434   -0.7898 H         1 UNK         0.0748 
     85 H85        34.1394   26.9036    0.0280 H         1 UNK         0.0748 
     86 H86        32.4902   29.3922   -1.3135 H         1 UNK         0.0940 
     87 H87        32.9950   28.8937    0.2666 H         1 UNK         0.0940 
     88 H88        31.0609   30.5470    0.1617 H         1 UNK         0.0703 
     89 H89        29.8402   28.5868   -1.4570 H         1 UNK         0.3081 
     90 H90        26.8747   30.2659   -1.8055 H         1 UNK         0.0719 
     91 H91        28.3777   27.6924   -2.5611 H         1 UNK         0.0809 
     92 H92        27.0816   28.4566   -3.4647 H         1 UNK         0.0809 
     93 H93        28.6251   29.2712   -3.3105 H         1 UNK         0.0809 
     94 H94        25.4419   28.8134   -0.9126 H         1 UNK         0.2990 
     95 H95        25.4755   26.7312    1.5225 H         1 UNK         0.0690 
     96 H96        23.2190   26.6643    0.4512 H         1 UNK         0.0788 
     97 H97        23.9072   27.1917   -1.0777 H         1 UNK         0.0788 
     98 H98        23.9277   28.2584    0.3274 H         1 UNK         0.0788 
     99 H99        25.4405   24.5805    0.9542 H         1 UNK         0.2993 
    100 H100       24.6300   22.7218   -0.7278 H         1 UNK         0.0949 
    101 H101       26.7984   22.8017   -2.8891 H         1 UNK         0.0767 
    102 H102       25.8126   21.3999   -2.4690 H         1 UNK         0.0767 
    103 H103       25.0616   22.8231   -3.1661 H         1 UNK         0.0767 
    104 H104       27.4729   22.1748   -0.6036 H         1 UNK         0.3013 
    105 H105       29.3852   27.5463    1.0795 H         1 UNK         0.3121 
    106 H106       30.3785   27.5821    3.8154 H         1 UNK         0.0774 
    107 H107       29.6256   25.4937    2.6707 H         1 UNK         0.0815 
    108 H108       28.7510   25.7799    4.1665 H         1 UNK         0.0815 
    109 H109       27.9734   26.1059    2.6228 H         1 UNK         0.0815 
    110 H110       27.6338   28.9857    2.0839 H         1 UNK         0.2987 
    111 H111       26.1810   29.8104    4.4830 H         1 UNK         0.0949 
    112 H112       25.8268   30.5939    1.5368 H         1 UNK         0.0806 
    113 H113       24.9444   29.3277    2.3915 H         1 UNK         0.0806 
    114 H114       24.7319   31.0091    2.8461 H         1 UNK         0.0806 
    115 H115       28.3746   31.3024    2.0948 H         1 UNK         0.3010 
    116 H116       28.4482   33.9113    3.3063 H         1 UNK         0.0829 
    117 H117       29.0177   33.4588    0.9078 H         1 UNK         0.0813 
    118 H118       30.3493   34.2521    1.7351 H         1 UNK         0.0813 
    119 H119       30.4265   32.5264    1.4121 H         1 UNK         0.0813 
    120 H120       29.8935   30.9500    4.2317 H         1 UNK         0.3038 
    121 H121       31.3590   30.2416    5.7089 H         1 UNK         0.0769 
    122 H122       31.3886   33.0413    6.9544 H         1 UNK         0.0811 
    123 H123       31.9216   31.5502    7.7130 H         1 UNK         0.0811 
    124 H124       30.2214   31.7755    7.3367 H         1 UNK         0.0811 
    125 H125       32.2698   30.9322    3.2171 H         1 UNK         0.3204 
    126 H126       34.9923   32.1186    3.4963 H         1 UNK         0.0748 
    127 H127       34.9630   32.0409    1.0075 H         1 UNK         0.0771 
    128 H128       33.3698   31.2956    1.0248 H         1 UNK         0.0771 
    129 H129       33.5821   32.9422    1.6131 H         1 UNK         0.0771 
    130 H130       35.0297   30.0839    5.0166 H         1 UNK         0.2980 
    131 H131       35.4500   27.5440    3.6529 H         1 UNK         0.0545 
    132 H132       37.4016   26.1288    4.3682 H         1 UNK         0.3459 
    133 H133       38.9470   26.9327    4.2502 H         1 UNK         0.3459 
    134 H134       34.5299   28.2793    6.2663 H         1 UNK         0.0616 
    135 H135       36.0728   27.5545    6.5615 H         1 UNK         0.0616 
    136 H136       32.1256   26.1446    5.6294 H         1 UNK         0.0634 
    137 H137       32.8281   27.4870    4.7643 H         1 UNK         0.0634 
@<TRIPOS>BOND
     1    1    2 1    
     2    1   72 1    
     3    1   73 1    
     4    1   74 1    
     5    2    3 2    
     6    2    4 am   BACKBONE|DICT|INTERRES
     7    4    5 1    
     8    4   75 1    
     9    5    6 1    
    10    5   35 1    
    11    5   76 1    
    12    6    7 1    
    13    6   77 1    
    14    6   78 1    
    15    7    8 1    
    16    8    9 1    
    17    8   79 1    
    18    8   80 1    
    19    9   10 ar   
    20    9   14 ar   
    21   10   11 ar   
    22   10   81 1    
    23   11   12 ar   
    24   11   71 1    
    25   12   13 ar   
    26   12   82 1    
    27   13   14 ar   
    28   13   15 1    
    29   14   83 1    
    30   15   16 1    
    31   15   84 1    
    32   15   85 1    
    33   16   17 1    
    34   17   18 1    
    35   17   86 1    
    36   17   87 1    
    37   18   19 1    
    38   18   37 1    
    39   18   88 1    
    40   19   20 am   BACKBONE|DICT|INTERRES
    41   19   89 1    
    42   20   21 2    
    43   20   22 1    
    44   22   23 1    
    45   22   24 1    
    46   22   90 1    
    47   23   91 1    
    48   23   92 1    
    49   23   93 1    
    50   24   25 am   BACKBONE|DICT|INTERRES
    51   24   94 1    
    52   25   26 2    
    53   25   27 1    
    54   27   28 1    
    55   27   29 1    
    56   27   95 1    
    57   28   96 1    
    58   28   97 1    
    59   28   98 1    
    60   29   30 am   BACKBONE|DICT|INTERRES
    61   29   99 1    
    62   30   31 2    
    63   30   32 1    
    64   32   33 1    
    65   32   34 1    
    66   32  100 1    
    67   33  101 1    
    68   33  102 1    
    69   33  103 1    
    70   34   35 am   BACKBONE|DICT|INTERRES
    71   34  104 1    
    72   35   36 2    
    73   37   38 2    
    74   37   39 am   BACKBONE|DICT|INTERRES
    75   39   40 1    
    76   39  105 1    
    77   40   41 1    
    78   40   42 1    
    79   40  106 1    
    80   41  107 1    
    81   41  108 1    
    82   41  109 1    
    83   42   43 2    
    84   42   44 am   BACKBONE|DICT|INTERRES
    85   44   45 1    
    86   44  110 1    
    87   45   46 1    
    88   45   47 1    
    89   45  111 1    
    90   46  112 1    
    91   46  113 1    
    92   46  114 1    
    93   47   48 2    
    94   47   49 am   BACKBONE|DICT|INTERRES
    95   49   50 1    
    96   49  115 1    
    97   50   51 1    
    98   50   52 1    
    99   50  116 1    
   100   51  117 1    
   101   51  118 1    
   102   51  119 1    
   103   52   53 2    
   104   52   54 am   BACKBONE|DICT|INTERRES
   105   54   55 1    
   106   54  120 1    
   107   55   56 1    
   108   55   57 1    
   109   55  121 1    
   110   56  122 1    
   111   56  123 1    
   112   56  124 1    
   113   57   58 2    
   114   57   59 am   BACKBONE|DICT|INTERRES
   115   59   60 1    
   116   59  125 1    
   117   60   61 1    
   118   60   62 1    
   119   60  126 1    
   120   61  127 1    
   121   61  128 1    
   122   61  129 1    
   123   62   63 2    
   124   62   64 am   BACKBONE|DICT|INTERRES
   125   64   65 1    
   126   64  130 1    
   127   65   66 1    
   128   65   69 1    
   129   65  131 1    
   130   66   67 am   BACKBONE|DICT|INTERRES
   131   66   68 2    
   132   67  132 1    
   133   67  133 1    
   134   69   70 1    
   135   69  134 1    
   136   69  135 1    
   137   70   71 1    
   138   71  136 1    
   139   71  137 1    
@<TRIPOS>SUBSTRUCTURE
     1 UNK         1 GROUP             0       ****    0 ROOT    
