@<TRIPOS>MOLECULE
3R136
137   139    1
SMALL
USER_CHARGES


@<TRIPOS>ATOM
      1 CA         28.2664   20.7619   -0.1985 C.3       0 UNK        -0.1979 
      2 C          29.0652   22.0532   -0.1149 C.2       0 UNK         0.4864 
      3 O          28.6283   22.9958    0.5429 O.2       0 UNK        -0.5359 
      4 N          30.2299   22.1028   -0.7772 N.am      1 UNK        -0.4318 
      5 CA         31.1866   23.2209   -0.8477 C.3       1 UNK         0.0824 
      6 C6         31.7331   23.6864    0.5295 C.3       12 UNK        -0.0944 
      7 S7         32.7961   22.4267    1.3110 S.3       12 UNK        -0.2672 
      8 C8         31.6703   21.6124    2.4950 C.3       12 UNK         0.0333 
      9 C9         31.1377   22.5378    3.5845 C.ar      12 UNK        -0.0807 
     10 C10        32.0017   23.3762    4.2971 C.ar      12 UNK        -0.0894 
     11 C11        31.5148   24.1967    5.3177 C.ar      12 UNK        -0.0804 
     12 C12        30.1552   24.1674    5.6364 C.ar      12 UNK        -0.0824 
     13 C13        29.2803   23.3302    4.9377 C.ar      12 UNK        -0.0762 
     14 C14        29.7767   22.5213    3.9101 C.ar      12 UNK        -0.0782 
     15 C15        27.8050   23.2839    5.3174 C.3       12 UNK         0.0230 
     16 S16        26.7058   23.8959    3.9995 S.3       12 UNK        -0.2608 
     17 C17        27.2803   25.6135    3.7720 C.3       12 UNK        -0.0989 
     18 CA         27.3349   25.9873    2.2654 C.3       5 UNK         0.0716 
     19 N          26.0265   25.9991    1.5948 N.am      5 UNK        -0.4135 
     20 C          24.9123   26.6592    1.9515 C.2       4 UNK         0.5031 
     21 O          24.8136   27.3657    2.9570 O.2       4 UNK        -0.5229 
     22 CA         23.6756   26.4634    1.0450 C.3       4 UNK         0.0329 
     23 CB         22.6067   27.5635    1.2285 C.3       4 UNK        -0.2001 
     24 N          24.0118   26.2796   -0.3729 N.am      4 UNK        -0.4303 
     25 C          24.6035   27.1660   -1.1864 C.2       3 UNK         0.5044 
     26 O          24.8805   28.3269   -0.8803 O.2       3 UNK        -0.5152 
     27 CA         24.9970   26.6393   -2.5783 C.3       3 UNK         0.0319 
     28 CB         24.4325   27.5334   -3.6955 C.3       3 UNK        -0.2001 
     29 N          26.4530   26.5478   -2.7161 N.am      3 UNK        -0.4354 
     30 C          27.2477   25.7895   -1.9487 C.2       2 UNK         0.4964 
     31 O          26.8294   25.0312   -1.0691 O.2       2 UNK        -0.5047 
     32 CA         28.7562   25.9164   -2.1939 C.3       2 UNK         0.0288 
     33 CB         29.2766   27.3055   -1.7749 C.3       2 UNK        -0.2113 
     34 N          29.4465   24.8671   -1.4471 N.am      2 UNK        -0.4145 
     35 C          30.6790   24.4115   -1.6901 C.2       1 UNK         0.5006 
     36 O          31.4126   24.8789   -2.5632 O.2       1 UNK        -0.5103 
     37 C          28.1293   27.2844    2.0197 C.2       5 UNK         0.5055 
     38 O          27.5591   28.3439    1.7530 O.2       5 UNK        -0.5220 
     39 N          29.4620   27.1812    2.1167 N.am      6 UNK        -0.4450 
     40 CA         30.4211   28.2569    1.8385 C.3       6 UNK         0.0367 
     41 CB         31.7624   27.6305    1.4198 C.3       6 UNK        -0.1929 
     42 C          30.5691   29.2661    2.9959 C.2       6 UNK         0.5070 
     43 O          31.6868   29.6869    3.3097 O.2       6 UNK        -0.5237 
     44 N          29.4382   29.6567    3.5966 N.am      7 UNK        -0.4739 
     45 CA         29.3337   30.6634    4.6520 C.3       7 UNK         0.0276 
     46 CB         27.8784   30.7374    5.1400 C.3       7 UNK        -0.1927 
     47 C          29.8177   32.0314    4.1469 C.2       7 UNK         0.5013 
     48 O          29.3146   32.5108    3.1290 O.2       7 UNK        -0.5193 
     49 N          30.8308   32.5896    4.8205 N.am      8 UNK        -0.4253 
     50 CA         31.6020   33.7991    4.4972 C.3       8 UNK         0.0242 
     51 CB         30.7022   35.0457    4.3828 C.3       8 UNK        -0.2000 
     52 C          32.5236   33.6551    3.2699 C.2       8 UNK         0.4948 
     53 O          33.5682   34.3067    3.2353 O.2       8 UNK        -0.5275 
     54 N          32.1490   32.8086    2.3011 N.am      9 UNK        -0.4246 
     55 CA         32.9284   32.4846    1.1059 C.3       9 UNK         0.0261 
     56 CB         32.0513   31.7024    0.1148 C.3       9 UNK        -0.1959 
     57 C          34.2197   31.7104    1.4208 C.2       9 UNK         0.5033 
     58 O          35.2496   31.9978    0.8080 O.2       9 UNK        -0.5390 
     59 N          34.1500   30.7601    2.3633 N.am      10 UNK        -0.4215 
     60 CA         35.2966   29.9670    2.8163 C.3       10 UNK         0.0240 
     61 CB         35.4253   28.6883    1.9693 C.3       10 UNK        -0.1982 
     62 C          35.2436   29.6177    4.3110 C.2       10 UNK         0.4970 
     63 O          36.3073   29.4255    4.9022 O.2       10 UNK        -0.4916 
     64 N          34.0459   29.5245    4.8998 N.am      11 UNK        -0.4279 
     65 CA         33.8333   29.0918    6.2875 C.3       11 UNK         0.1003 
     66 C          32.6661   29.8587    6.9686 C.2       11 UNK         0.5709 
     67 N          32.1223   29.3568    8.0690 N.am      11 UNK        -0.7358 
     68 O          32.2732   30.9406    6.5380 O.2       11 UNK        -0.4999 
     69 C69        33.7679   27.5415    6.3986 C.3       12 UNK        -0.0954 
     70 S70        32.4388   26.7871    5.4027 S.3       12 UNK        -0.2268 
     71 C71        32.4592   25.1056    6.0850 C.3       12 UNK         0.0203 
     72 H72        27.2889   20.9560   -0.6392 H         1 UNK         0.0888 
     73 H73        28.7694   20.0078   -0.8034 H         1 UNK         0.0888 
     74 H74        28.1149   20.3517    0.7995 H         1 UNK         0.0888 
     75 H75        30.5068   21.2916   -1.3127 H         1 UNK         0.3017 
     76 H76        32.0354   22.8228   -1.4068 H         1 UNK         0.0873 
     77 H77        32.3553   24.5750    0.4078 H         1 UNK         0.0745 
     78 H78        30.9300   23.9808    1.2057 H         1 UNK         0.0745 
     79 H79        32.2111   20.7961    2.9753 H         1 UNK         0.0705 
     80 H80        30.8527   21.1481    1.9444 H         1 UNK         0.0705 
     81 H81        33.0560   23.3900    4.0564 H         1 UNK         0.1334 
     82 H82        29.7814   24.7983    6.4316 H         1 UNK         0.1417 
     83 H83        29.0981   21.8759    3.3684 H         1 UNK         0.1562 
     84 H84        27.6182   23.8603    6.2250 H         1 UNK         0.0748 
     85 H85        27.5317   22.2540    5.5508 H         1 UNK         0.0748 
     86 H86        28.2659   25.7222    4.2248 H         1 UNK         0.0940 
     87 H87        26.6324   26.2854    4.3351 H         1 UNK         0.0940 
     88 H88        27.8959   25.2039    1.7543 H         1 UNK         0.0703 
     89 H89        26.0170   25.4976    0.7122 H         1 UNK         0.3081 
     90 H90        23.2260   25.5228    1.3666 H         1 UNK         0.0719 
     91 H91        23.0027   28.5549    1.0071 H         1 UNK         0.0809 
     92 H92        21.7452   27.3930    0.5829 H         1 UNK         0.0809 
     93 H93        22.2405   27.5845    2.2556 H         1 UNK         0.0809 
     94 H94        23.8578   25.3472   -0.7326 H         1 UNK         0.2990 
     95 H95        24.5853   25.6362   -2.7101 H         1 UNK         0.0690 
     96 H96        24.6558   27.1262   -4.6819 H         1 UNK         0.0788 
     97 H97        24.8386   28.5448   -3.6495 H         1 UNK         0.0788 
     98 H98        23.3474   27.6147   -3.6174 H         1 UNK         0.0788 
     99 H99        26.8775   27.1635   -3.3945 H         1 UNK         0.2993 
    100 H100       28.9381   25.7629   -3.2598 H         1 UNK         0.0949 
    101 H101       29.0399   27.5197   -0.7348 H         1 UNK         0.0767 
    102 H102       30.3567   27.3874   -1.8965 H         1 UNK         0.0767 
    103 H103       28.8269   28.0952   -2.3776 H         1 UNK         0.0767 
    104 H104       28.8813   24.3896   -0.7444 H         1 UNK         0.3013 
    105 H105       29.8609   26.2956    2.3945 H         1 UNK         0.3121 
    106 H106       30.0540   28.8320    0.9863 H         1 UNK         0.0774 
    107 H107       32.4723   28.3991    1.1137 H         1 UNK         0.0815 
    108 H108       32.2161   27.0659    2.2353 H         1 UNK         0.0815 
    109 H109       31.6376   26.9594    0.5702 H         1 UNK         0.0815 
    110 H110       28.5681   29.3150    3.2018 H         1 UNK         0.2987 
    111 H111       29.9577   30.3375    5.4852 H         1 UNK         0.0949 
    112 H112       27.1983   31.0280    4.3379 H         1 UNK         0.0806 
    113 H113       27.5421   29.7778    5.5331 H         1 UNK         0.0806 
    114 H114       27.7727   31.4712    5.9402 H         1 UNK         0.0806 
    115 H115       31.2353   32.0396    5.5789 H         1 UNK         0.3010 
    116 H116       32.2612   33.9512    5.3535 H         1 UNK         0.0829 
    117 H117       30.0807   35.1697    5.2695 H         1 UNK         0.0813 
    118 H118       31.3051   35.9489    4.2804 H         1 UNK         0.0813 
    119 H119       30.0447   34.9996    3.5143 H         1 UNK         0.0813 
    120 H120       31.2436   32.3641    2.4004 H         1 UNK         0.3038 
    121 H121       33.2156   33.4265    0.6335 H         1 UNK         0.0769 
    122 H122       32.6038   31.4737   -0.7977 H         1 UNK         0.0811 
    123 H123       31.1713   32.2768   -0.1754 H         1 UNK         0.0811 
    124 H124       31.7104   30.7564    0.5339 H         1 UNK         0.0811 
    125 H125       33.2456   30.5533    2.7816 H         1 UNK         0.3204 
    126 H126       36.2057   30.5569    2.6794 H         1 UNK         0.0748 
    127 H127       36.3325   28.1411    2.2289 H         1 UNK         0.0771 
    128 H128       34.5853   28.0133    2.1312 H         1 UNK         0.0771 
    129 H129       35.4780   28.9156    0.9045 H         1 UNK         0.0771 
    130 H130       33.1898   29.6641    4.3693 H         1 UNK         0.2980 
    131 H131       34.7003   29.4129    6.8671 H         1 UNK         0.0545 
    132 H132       31.3821   29.8664    8.5244 H         1 UNK         0.3459 
    133 H133       32.4320   28.4765    8.4478 H         1 UNK         0.3459 
    134 H134       33.6642   27.2287    7.4384 H         1 UNK         0.0616 
    135 H135       34.7141   27.1152    6.0620 H         1 UNK         0.0616 
    136 H136       33.4765   24.7125    6.0481 H         1 UNK         0.0634 
    137 H137       32.1753   25.1373    7.1380 H         1 UNK         0.0634 
@<TRIPOS>BOND
     1    1    2 1    
     2    1   72 1    
     3    1   73 1    
     4    1   74 1    
     5    2    3 2    
     6    2    4 am   BACKBONE|DICT|INTERRES
     7    4    5 1    
     8    4   75 1    
     9    5    6 1    
    10    5   35 1    
    11    5   76 1    
    12    6    7 1    
    13    6   77 1    
    14    6   78 1    
    15    7    8 1    
    16    8    9 1    
    17    8   79 1    
    18    8   80 1    
    19    9   10 ar   
    20    9   14 ar   
    21   10   11 ar   
    22   10   81 1    
    23   11   12 ar   
    24   11   71 1    
    25   12   13 ar   
    26   12   82 1    
    27   13   14 ar   
    28   13   15 1    
    29   14   83 1    
    30   15   16 1    
    31   15   84 1    
    32   15   85 1    
    33   16   17 1    
    34   17   18 1    
    35   17   86 1    
    36   17   87 1    
    37   18   19 1    
    38   18   37 1    
    39   18   88 1    
    40   19   20 am   BACKBONE|DICT|INTERRES
    41   19   89 1    
    42   20   21 2    
    43   20   22 1    
    44   22   23 1    
    45   22   24 1    
    46   22   90 1    
    47   23   91 1    
    48   23   92 1    
    49   23   93 1    
    50   24   25 am   BACKBONE|DICT|INTERRES
    51   24   94 1    
    52   25   26 2    
    53   25   27 1    
    54   27   28 1    
    55   27   29 1    
    56   27   95 1    
    57   28   96 1    
    58   28   97 1    
    59   28   98 1    
    60   29   30 am   BACKBONE|DICT|INTERRES
    61   29   99 1    
    62   30   31 2    
    63   30   32 1    
    64   32   33 1    
    65   32   34 1    
    66   32  100 1    
    67   33  101 1    
    68   33  102 1    
    69   33  103 1    
    70   34   35 am   BACKBONE|DICT|INTERRES
    71   34  104 1    
    72   35   36 2    
    73   37   38 2    
    74   37   39 am   BACKBONE|DICT|INTERRES
    75   39   40 1    
    76   39  105 1    
    77   40   41 1    
    78   40   42 1    
    79   40  106 1    
    80   41  107 1    
    81   41  108 1    
    82   41  109 1    
    83   42   43 2    
    84   42   44 am   BACKBONE|DICT|INTERRES
    85   44   45 1    
    86   44  110 1    
    87   45   46 1    
    88   45   47 1    
    89   45  111 1    
    90   46  112 1    
    91   46  113 1    
    92   46  114 1    
    93   47   48 2    
    94   47   49 am   BACKBONE|DICT|INTERRES
    95   49   50 1    
    96   49  115 1    
    97   50   51 1    
    98   50   52 1    
    99   50  116 1    
   100   51  117 1    
   101   51  118 1    
   102   51  119 1    
   103   52   53 2    
   104   52   54 am   BACKBONE|DICT|INTERRES
   105   54   55 1    
   106   54  120 1    
   107   55   56 1    
   108   55   57 1    
   109   55  121 1    
   110   56  122 1    
   111   56  123 1    
   112   56  124 1    
   113   57   58 2    
   114   57   59 am   BACKBONE|DICT|INTERRES
   115   59   60 1    
   116   59  125 1    
   117   60   61 1    
   118   60   62 1    
   119   60  126 1    
   120   61  127 1    
   121   61  128 1    
   122   61  129 1    
   123   62   63 2    
   124   62   64 am   BACKBONE|DICT|INTERRES
   125   64   65 1    
   126   64  130 1    
   127   65   66 1    
   128   65   69 1    
   129   65  131 1    
   130   66   67 am   BACKBONE|DICT|INTERRES
   131   66   68 2    
   132   67  132 1    
   133   67  133 1    
   134   69   70 1    
   135   69  134 1    
   136   69  135 1    
   137   70   71 1    
   138   71  136 1    
   139   71  137 1    
@<TRIPOS>SUBSTRUCTURE
     1 UNK         1 GROUP             0       ****    0 ROOT    
