@<TRIPOS>MOLECULE
3R136
137   139    1
SMALL
USER_CHARGES


@<TRIPOS>ATOM
      1 CA         32.2175   20.2198   -1.0461 C.3       0 UNK        -0.1979 
      2 C          31.2627   21.1611   -0.3283 C.2       0 UNK         0.4864 
      3 O          31.2170   22.3502   -0.6481 O.2       0 UNK        -0.5359 
      4 N          30.4817   20.6397    0.6271 N.am      1 UNK        -0.4318 
      5 CA         29.5524   21.3855    1.4899 C.3       1 UNK         0.0824 
      6 C6         29.2721   20.6369    2.8237 C.3       12 UNK        -0.0944 
      7 S7         30.7876   20.1010    3.6936 S.3       12 UNK        -0.2672 
      8 C8         31.0616   21.4653    4.8698 C.3       12 UNK         0.0333 
      9 C9         31.3290   22.7875    4.1641 C.ar      12 UNK        -0.0807 
     10 C10        32.4549   22.9372    3.3492 C.ar      12 UNK        -0.0894 
     11 C11        32.6949   24.1415    2.6807 C.ar      12 UNK        -0.0804 
     12 C12        31.8020   25.2060    2.8363 C.ar      12 UNK        -0.0824 
     13 C13        30.6852   25.0733    3.6662 C.ar      12 UNK        -0.0762 
     14 C14        30.4501   23.8620    4.3230 C.ar      12 UNK        -0.0782 
     15 C15        29.7392   26.2404    3.8779 C.3       12 UNK         0.0230 
     16 S16        28.2755   26.1101    2.8087 S.3       12 UNK        -0.2608 
     17 C17        27.2592   27.4403    3.5303 C.3       12 UNK        -0.0989 
     18 CA         27.6315   28.8220    2.9482 C.3       5 UNK         0.0716 
     19 N          27.2890   28.9305    1.5319 N.am      5 UNK        -0.4135 
     20 C          27.5707   29.9577    0.7232 C.2       4 UNK         0.5031 
     21 O          28.1060   31.0027    1.1032 O.2       4 UNK        -0.5229 
     22 CA         27.2761   29.7381   -0.7755 C.3       4 UNK         0.0329 
     23 CB         27.5696   30.9941   -1.6176 C.3       4 UNK        -0.2001 
     24 N          28.0522   28.6125   -1.3136 N.am      4 UNK        -0.4303 
     25 C          27.8115   27.3169   -1.0667 C.2       3 UNK         0.5044 
     26 O          26.8304   26.9256   -0.4274 O.2       3 UNK        -0.5152 
     27 CA         28.8708   26.3148   -1.5653 C.3       3 UNK         0.0319 
     28 CB         30.2443   26.5935   -0.9268 C.3       3 UNK        -0.2001 
     29 N          28.5012   24.9376   -1.2423 N.am      3 UNK        -0.4354 
     30 C          27.6110   24.1911   -1.9088 C.2       2 UNK         0.4964 
     31 O          27.0460   24.5632   -2.9391 O.2       2 UNK        -0.5047 
     32 CA         27.3130   22.7928   -1.3361 C.3       2 UNK         0.0288 
     33 CB         27.0924   21.7416   -2.4407 C.3       2 UNK        -0.2113 
     34 N          28.3905   22.3411   -0.4528 N.am      2 UNK        -0.4145 
     35 C          28.2481   21.7807    0.7531 C.2       1 UNK         0.5006 
     36 O          27.1510   21.5624    1.2719 O.2       1 UNK        -0.5103 
     37 C          27.0157   29.9569    3.7806 C.2       5 UNK         0.5055 
     38 O          25.8148   30.2119    3.6680 O.2       5 UNK        -0.5220 
     39 N          27.8623   30.6251    4.5759 N.am      6 UNK        -0.4450 
     40 CA         27.5952   31.7768    5.4503 C.3       6 UNK         0.0367 
     41 CB         26.4999   31.4692    6.4903 C.3       6 UNK        -0.1929 
     42 C          27.3029   33.0891    4.6992 C.2       6 UNK         0.5070 
     43 O          27.6615   34.1542    5.2020 O.2       6 UNK        -0.5237 
     44 N          26.6931   33.0037    3.5099 N.am      7 UNK        -0.4739 
     45 CA         26.4799   34.1179    2.5852 C.3       7 UNK         0.0276 
     46 CB         25.5361   33.6713    1.4571 C.3       7 UNK        -0.1927 
     47 C          27.7995   34.6579    2.0089 C.2       7 UNK         0.5013 
     48 O          27.9379   35.8727    1.8576 O.2       7 UNK        -0.5193 
     49 N          28.7437   33.7526    1.7219 N.am      8 UNK        -0.4253 
     50 CA         30.0884   34.0764    1.2494 C.3       8 UNK         0.0242 
     51 CB         30.0842   34.2627   -0.2791 C.3       8 UNK        -0.2000 
     52 C          31.1243   33.0237    1.6674 C.2       8 UNK         0.4948 
     53 O          32.2424   33.4007    2.0219 O.2       8 UNK        -0.5275 
     54 N          30.7650   31.7353    1.5951 N.am      9 UNK        -0.4246 
     55 CA         31.6780   30.6165    1.8287 C.3       9 UNK         0.0261 
     56 CB         31.3028   29.4640    0.8823 C.3       9 UNK        -0.1959 
     57 C          31.6374   30.1285    3.2828 C.2       9 UNK         0.5033 
     58 O          30.6040   30.2315    3.9493 O.2       9 UNK        -0.5390 
     59 N          32.7540   29.5326    3.7065 N.am      10 UNK        -0.4215 
     60 CA         32.9521   28.7913    4.9470 C.3       10 UNK         0.0240 
     61 CB         32.9141   29.7237    6.1734 C.3       10 UNK        -0.1982 
     62 C          34.3151   28.1021    4.8211 C.2       10 UNK         0.4970 
     63 O          35.2579   28.7409    4.3456 O.2       10 UNK        -0.4916 
     64 N          34.3958   26.8314    5.2298 N.am      11 UNK        -0.4279 
     65 CA         35.6170   26.0049    5.1572 C.3       11 UNK         0.1003 
     66 C          36.0575   25.4460    6.5414 C.2       11 UNK         0.5709 
     67 N          35.4481   25.8528    7.6496 N.am      11 UNK        -0.7358 
     68 O          36.9839   24.6422    6.6196 O.2       11 UNK        -0.4999 
     69 C69        35.5127   24.8830    4.0840 C.3       12 UNK        -0.0954 
     70 S70        35.1095   25.5175    2.4166 S.3       12 UNK        -0.2268 
     71 C71        33.9210   24.2852    1.7902 C.3       12 UNK         0.0203 
     72 H72        33.2442   20.5629   -0.9211 H         1 UNK         0.0888 
     73 H73        32.1510   19.2017   -0.6630 H         1 UNK         0.0888 
     74 H74        31.9921   20.1978   -2.1120 H         1 UNK         0.0888 
     75 H75        30.5520   19.6535    0.8337 H         1 UNK         0.3017 
     76 H76        30.0356   22.3303    1.7458 H         1 UNK         0.0873 
     77 H77        28.6810   21.2616    3.4962 H         1 UNK         0.0745 
     78 H78        28.6724   19.7441    2.6366 H         1 UNK         0.0745 
     79 H79        31.9174   21.2204    5.5003 H         1 UNK         0.0705 
     80 H80        30.2009   21.5409    5.5362 H         1 UNK         0.0705 
     81 H81        33.1374   22.1069    3.2284 H         1 UNK         0.1334 
     82 H82        31.9880   26.1395    2.3230 H         1 UNK         0.1417 
     83 H83        29.5793   23.7589    4.9564 H         1 UNK         0.1562 
     84 H84        30.2488   27.1839    3.6780 H         1 UNK         0.0748 
     85 H85        29.4330   26.2710    4.9247 H         1 UNK         0.0748 
     86 H86        27.3790   27.4224    4.6157 H         1 UNK         0.0940 
     87 H87        26.2067   27.2175    3.3439 H         1 UNK         0.0940 
     88 H88        28.7139   28.9218    2.9980 H         1 UNK         0.0703 
     89 H89        26.8997   28.0965    1.1014 H         1 UNK         0.3081 
     90 H90        26.2119   29.5116   -0.8693 H         1 UNK         0.0719 
     91 H91        28.6261   31.2629   -1.5869 H         1 UNK         0.0809 
     92 H92        27.2912   30.8461   -2.6610 H         1 UNK         0.0809 
     93 H93        27.0045   31.8526   -1.2520 H         1 UNK         0.0809 
     94 H94        28.8827   28.8553   -1.8339 H         1 UNK         0.2990 
     95 H95        28.9555   26.4152   -2.6494 H         1 UNK         0.0690 
     96 H96        30.9768   25.8394   -1.2168 H         1 UNK         0.0788 
     97 H97        30.1890   26.5993    0.1631 H         1 UNK         0.0788 
     98 H98        30.6425   27.5572   -1.2439 H         1 UNK         0.0788 
     99 H99        28.8690   24.5731   -0.3762 H         1 UNK         0.2993 
    100 H100       26.3870   22.8942   -0.7661 H         1 UNK         0.0949 
    101 H101       27.9761   21.6308   -3.0703 H         1 UNK         0.0767 
    102 H102       26.8589   20.7652   -2.0158 H         1 UNK         0.0767 
    103 H103       26.2592   22.0175   -3.0884 H         1 UNK         0.0767 
    104 H104       29.3433   22.4764   -0.7877 H         1 UNK         0.3013 
    105 H105       28.8530   30.3898    4.4921 H         1 UNK         0.3121 
    106 H106       28.5258   31.9400    5.9965 H         1 UNK         0.0774 
    107 H107       26.4105   32.2846    7.2091 H         1 UNK         0.0815 
    108 H108       25.5205   31.3400    6.0292 H         1 UNK         0.0815 
    109 H109       26.7295   30.5646    7.0533 H         1 UNK         0.0815 
    110 H110       26.3881   32.0841    3.2089 H         1 UNK         0.2987 
    111 H111       26.0006   34.9296    3.1370 H         1 UNK         0.0949 
    112 H112       25.3500   34.4879    0.7582 H         1 UNK         0.0806 
    113 H113       25.9529   32.8412    0.8858 H         1 UNK         0.0806 
    114 H114       24.5699   33.3551    1.8506 H         1 UNK         0.0806 
    115 H115       28.5162   32.7690    1.8322 H         1 UNK         0.3010 
    116 H116       30.4008   35.0172    1.7085 H         1 UNK         0.0829 
    117 H117       29.4392   35.0893   -0.5769 H         1 UNK         0.0813 
    118 H118       31.0860   34.4848   -0.6493 H         1 UNK         0.0813 
    119 H119       29.7362   33.3654   -0.7915 H         1 UNK         0.0813 
    120 H120       29.8098   31.4882    1.3451 H         1 UNK         0.3038 
    121 H121       32.6978   30.9283    1.5909 H         1 UNK         0.0769 
    122 H122       30.3268   29.0431    1.1220 H         1 UNK         0.0811 
    123 H123       32.0279   28.6517    0.9467 H         1 UNK         0.0811 
    124 H124       31.2808   29.7952   -0.1559 H         1 UNK         0.0811 
    125 H125       33.5652   29.5124    3.0997 H         1 UNK         0.3204 
    126 H126       32.1679   28.0370    5.0344 H         1 UNK         0.0748 
    127 H127       33.1191   29.1709    7.0909 H         1 UNK         0.0771 
    128 H128       33.6574   30.5184    6.0965 H         1 UNK         0.0771 
    129 H129       31.9369   30.1915    6.2929 H         1 UNK         0.0771 
    130 H130       33.5785   26.3703    5.6021 H         1 UNK         0.2980 
    131 H131       36.4559   26.6373    4.8620 H         1 UNK         0.0545 
    132 H132       34.7153   26.5422    7.6144 H         1 UNK         0.3459 
    133 H133       35.7514   25.4857    8.5380 H         1 UNK         0.3459 
    134 H134       34.7745   24.1438    4.3941 H         1 UNK         0.0616 
    135 H135       36.4585   24.3448    4.0016 H         1 UNK         0.0616 
    136 H136       34.4343   23.3290    1.6775 H         1 UNK         0.0634 
    137 H137       33.6005   24.5800    0.7900 H         1 UNK         0.0634 
@<TRIPOS>BOND
     1    1    2 1    
     2    1   72 1    
     3    1   73 1    
     4    1   74 1    
     5    2    3 2    
     6    2    4 am   BACKBONE|DICT|INTERRES
     7    4    5 1    
     8    4   75 1    
     9    5    6 1    
    10    5   35 1    
    11    5   76 1    
    12    6    7 1    
    13    6   77 1    
    14    6   78 1    
    15    7    8 1    
    16    8    9 1    
    17    8   79 1    
    18    8   80 1    
    19    9   10 ar   
    20    9   14 ar   
    21   10   11 ar   
    22   10   81 1    
    23   11   12 ar   
    24   11   71 1    
    25   12   13 ar   
    26   12   82 1    
    27   13   14 ar   
    28   13   15 1    
    29   14   83 1    
    30   15   16 1    
    31   15   84 1    
    32   15   85 1    
    33   16   17 1    
    34   17   18 1    
    35   17   86 1    
    36   17   87 1    
    37   18   19 1    
    38   18   37 1    
    39   18   88 1    
    40   19   20 am   BACKBONE|DICT|INTERRES
    41   19   89 1    
    42   20   21 2    
    43   20   22 1    
    44   22   23 1    
    45   22   24 1    
    46   22   90 1    
    47   23   91 1    
    48   23   92 1    
    49   23   93 1    
    50   24   25 am   BACKBONE|DICT|INTERRES
    51   24   94 1    
    52   25   26 2    
    53   25   27 1    
    54   27   28 1    
    55   27   29 1    
    56   27   95 1    
    57   28   96 1    
    58   28   97 1    
    59   28   98 1    
    60   29   30 am   BACKBONE|DICT|INTERRES
    61   29   99 1    
    62   30   31 2    
    63   30   32 1    
    64   32   33 1    
    65   32   34 1    
    66   32  100 1    
    67   33  101 1    
    68   33  102 1    
    69   33  103 1    
    70   34   35 am   BACKBONE|DICT|INTERRES
    71   34  104 1    
    72   35   36 2    
    73   37   38 2    
    74   37   39 am   BACKBONE|DICT|INTERRES
    75   39   40 1    
    76   39  105 1    
    77   40   41 1    
    78   40   42 1    
    79   40  106 1    
    80   41  107 1    
    81   41  108 1    
    82   41  109 1    
    83   42   43 2    
    84   42   44 am   BACKBONE|DICT|INTERRES
    85   44   45 1    
    86   44  110 1    
    87   45   46 1    
    88   45   47 1    
    89   45  111 1    
    90   46  112 1    
    91   46  113 1    
    92   46  114 1    
    93   47   48 2    
    94   47   49 am   BACKBONE|DICT|INTERRES
    95   49   50 1    
    96   49  115 1    
    97   50   51 1    
    98   50   52 1    
    99   50  116 1    
   100   51  117 1    
   101   51  118 1    
   102   51  119 1    
   103   52   53 2    
   104   52   54 am   BACKBONE|DICT|INTERRES
   105   54   55 1    
   106   54  120 1    
   107   55   56 1    
   108   55   57 1    
   109   55  121 1    
   110   56  122 1    
   111   56  123 1    
   112   56  124 1    
   113   57   58 2    
   114   57   59 am   BACKBONE|DICT|INTERRES
   115   59   60 1    
   116   59  125 1    
   117   60   61 1    
   118   60   62 1    
   119   60  126 1    
   120   61  127 1    
   121   61  128 1    
   122   61  129 1    
   123   62   63 2    
   124   62   64 am   BACKBONE|DICT|INTERRES
   125   64   65 1    
   126   64  130 1    
   127   65   66 1    
   128   65   69 1    
   129   65  131 1    
   130   66   67 am   BACKBONE|DICT|INTERRES
   131   66   68 2    
   132   67  132 1    
   133   67  133 1    
   134   69   70 1    
   135   69  134 1    
   136   69  135 1    
   137   70   71 1    
   138   71  136 1    
   139   71  137 1    
@<TRIPOS>SUBSTRUCTURE
     1 UNK         1 GROUP             0       ****    0 ROOT    
