@<TRIPOS>MOLECULE
3R136
137   139    1
SMALL
USER_CHARGES


@<TRIPOS>ATOM
      1 CA         25.8095   19.4255    2.0670 C.3       0 UNK        -0.1979 
      2 C          26.8660   19.6182    0.9889 C.2       0 UNK         0.4864 
      3 O          26.6824   19.1484   -0.1346 O.2       0 UNK        -0.5359 
      4 N          27.9702   20.2983    1.3276 N.am      1 UNK        -0.4318 
      5 CA         29.0780   20.6250    0.4230 C.3       1 UNK         0.0824 
      6 C6         30.3054   21.1297    1.2216 C.3       12 UNK        -0.0944 
      7 S7         31.8290   21.2956    0.2304 S.3       12 UNK        -0.2672 
      8 C8         33.0858   21.4935    1.5359 C.3       12 UNK         0.0333 
      9 C9         32.8972   22.7848    2.3217 C.ar      12 UNK        -0.0807 
     10 C10        33.5215   23.9652    1.9099 C.ar      12 UNK        -0.0894 
     11 C11        33.3495   25.1485    2.6356 C.ar      12 UNK        -0.0804 
     12 C12        32.5369   25.1495    3.7736 C.ar      12 UNK        -0.0824 
     13 C13        31.8851   23.9785    4.1827 C.ar      12 UNK        -0.0762 
     14 C14        32.0944   22.7980    3.4651 C.ar      12 UNK        -0.0782 
     15 C15        30.9551   23.9387    5.3941 C.3       12 UNK         0.0230 
     16 S16        30.0303   25.4769    5.7226 S.3       12 UNK        -0.2608 
     17 C17        29.1124   25.7762    4.1672 C.3       12 UNK        -0.0989 
     18 CA         29.1471   27.2789    3.7858 C.3       5 UNK         0.0716 
     19 N          28.9560   27.5024    2.3477 N.am      5 UNK        -0.4135 
     20 C          29.1972   28.6781    1.7436 C.2       4 UNK         0.5031 
     21 O          29.6511   29.6592    2.3319 O.2       4 UNK        -0.5229 
     22 CA         28.8057   28.8319    0.2622 C.3       4 UNK         0.0329 
     23 CB         30.0046   28.5448   -0.6523 C.3       4 UNK        -0.2001 
     24 N          27.6762   27.9980   -0.1477 N.am      4 UNK        -0.4303 
     25 C          26.4598   27.9846    0.4166 C.2       3 UNK         0.5044 
     26 O          26.1219   28.7475    1.3218 O.2       3 UNK        -0.5152 
     27 CA         25.4791   26.8982   -0.0636 C.3       3 UNK         0.0319 
     28 CB         24.4354   27.5040   -1.0145 C.3       3 UNK        -0.2001 
     29 N          26.1349   25.7579   -0.7195 N.am      3 UNK        -0.4354 
     30 C          27.0105   24.9309   -0.1299 C.2       2 UNK         0.4964 
     31 O          27.3463   25.0099    1.0565 O.2       2 UNK        -0.5047 
     32 CA         27.6901   23.9075   -1.0428 C.3       2 UNK         0.0288 
     33 CB         28.8693   24.5699   -1.7870 C.3       2 UNK        -0.2113 
     34 N          28.1622   22.8023   -0.2169 N.am      2 UNK        -0.4145 
     35 C          28.6313   21.6295   -0.6599 C.2       1 UNK         0.5006 
     36 O          28.7005   21.3197   -1.8513 O.2       1 UNK        -0.5103 
     37 C          28.1702   28.1136    4.6525 C.2       5 UNK         0.5055 
     38 O          28.5275   28.4949    5.7671 O.2       5 UNK        -0.5220 
     39 N          26.9703   28.4095    4.1333 N.am      6 UNK        -0.4450 
     40 CA         26.0049   29.2947    4.7846 C.3       6 UNK         0.0367 
     41 CB         24.5750   28.8668    4.4137 C.3       6 UNK        -0.1929 
     42 C          26.2520   30.7618    4.4023 C.2       6 UNK         0.5070 
     43 O          26.1922   31.6309    5.2721 O.2       6 UNK        -0.5237 
     44 N          26.5001   31.0146    3.1094 N.am      7 UNK        -0.4739 
     45 CA         26.6146   32.3606    2.5442 C.3       7 UNK         0.0276 
     46 CB         26.4220   32.2920    1.0208 C.3       7 UNK        -0.1927 
     47 C          27.9259   33.0861    2.8912 C.2       7 UNK         0.5013 
     48 O          27.8857   34.2925    3.1381 O.2       7 UNK        -0.5193 
     49 N          29.0545   32.3643    2.8748 N.am      8 UNK        -0.4253 
     50 CA         30.4003   32.9236    3.0452 C.3       8 UNK         0.0242 
     51 CB         31.1671   32.7917    1.7176 C.3       8 UNK        -0.2000 
     52 C          31.1928   32.2604    4.1808 C.2       8 UNK         0.4948 
     53 O          32.0877   32.9052    4.7292 O.2       8 UNK        -0.5275 
     54 N          30.9002   30.9888    4.4921 N.am      9 UNK        -0.4246 
     55 CA         31.5321   30.1205    5.5003 C.3       9 UNK         0.0261 
     56 CB         31.4355   30.7099    6.9210 C.3       9 UNK        -0.1959 
     57 C          32.9699   29.7046    5.1509 C.2       9 UNK         0.5033 
     58 O          33.2768   28.5133    5.1740 O.2       9 UNK        -0.5390 
     59 N          33.8129   30.6821    4.8021 N.am      10 UNK        -0.4215 
     60 CA         35.1741   30.4835    4.3000 C.3       10 UNK         0.0240 
     61 CB         35.9783   31.7740    4.5297 C.3       10 UNK        -0.1982 
     62 C          35.2163   30.0800    2.8133 C.2       10 UNK         0.4970 
     63 O          36.2699   29.6461    2.3471 O.2       10 UNK        -0.4916 
     64 N          34.0933   30.2513    2.0995 N.am      11 UNK        -0.4279 
     65 CA         33.9192   30.0008    0.6571 C.3       11 UNK         0.1003 
     66 C          34.7200   30.9660   -0.2716 C.2       11 UNK         0.5709 
     67 N          35.2169   32.0960    0.2184 N.am      11 UNK        -0.7358 
     68 O          34.8645   30.7106   -1.4648 O.2       11 UNK        -0.4999 
     69 C69        34.0933   28.5049    0.2655 C.3       12 UNK        -0.0954 
     70 S70        32.9200   27.4004    1.1208 S.3       12 UNK        -0.2268 
     71 C71        34.0316   26.4275    2.1781 C.3       12 UNK         0.0203 
     72 H72        25.6437   18.3632    2.2440 H         1 UNK         0.0888 
     73 H73        26.1005   19.8848    3.0116 H         1 UNK         0.0888 
     74 H74        24.8660   19.8698    1.7510 H         1 UNK         0.0888 
     75 H75        28.0567   20.6462    2.2718 H         1 UNK         0.3017 
     76 H76        29.3648   19.7016   -0.0855 H         1 UNK         0.0873 
     77 H77        30.0875   22.0892    1.6934 H         1 UNK         0.0745 
     78 H78        30.5177   20.4315    2.0330 H         1 UNK         0.0745 
     79 H79        33.0546   20.6324    2.2055 H         1 UNK         0.0705 
     80 H80        34.0748   21.4821    1.0754 H         1 UNK         0.0705 
     81 H81        34.1387   23.9638    1.0217 H         1 UNK         0.1334 
     82 H82        32.4020   26.0698    4.3258 H         1 UNK         0.1417 
     83 H83        31.6126   21.8846    3.7866 H         1 UNK         0.1562 
     84 H84        31.5490   23.6980    6.2766 H         1 UNK         0.0748 
     85 H85        30.2281   23.1325    5.2828 H         1 UNK         0.0748 
     86 H86        28.0891   25.4084    4.2660 H         1 UNK         0.0940 
     87 H87        29.5642   25.1814    3.3721 H         1 UNK         0.0940 
     88 H88        30.1538   27.6438    3.9999 H         1 UNK         0.0703 
     89 H89        28.5576   26.7394    1.8135 H         1 UNK         0.3081 
     90 H90        28.5122   29.8712    0.1128 H         1 UNK         0.0719 
     91 H91        30.3344   27.5081   -0.5737 H         1 UNK         0.0809 
     92 H92        29.7659   28.7437   -1.6971 H         1 UNK         0.0809 
     93 H93        30.8524   29.1788   -0.3916 H         1 UNK         0.0809 
     94 H94        27.8513   27.3400   -0.8918 H         1 UNK         0.2990 
     95 H95        24.9607   26.5205    0.8202 H         1 UNK         0.0690 
     96 H96        23.6789   26.7703   -1.2939 H         1 UNK         0.0788 
     97 H97        24.8927   27.8825   -1.9297 H         1 UNK         0.0788 
     98 H98        23.9147   28.3383   -0.5416 H         1 UNK         0.0788 
     99 H99        25.9272   25.6259   -1.6997 H         1 UNK         0.2993 
    100 H100       26.9592   23.5257   -1.7589 H         1 UNK         0.0949 
    101 H101       29.3542   23.8753   -2.4728 H         1 UNK         0.0767 
    102 H102       28.5356   25.4198   -2.3835 H         1 UNK         0.0767 
    103 H103       29.6287   24.9330   -1.0926 H         1 UNK         0.0767 
    104 H104       28.1047   22.9825    0.7777 H         1 UNK         0.3013 
    105 H105       26.7532   28.1280    3.1844 H         1 UNK         0.3121 
    106 H106       26.1018   29.2098    5.8695 H         1 UNK         0.0774 
    107 H107       24.3884   28.9412    3.3420 H         1 UNK         0.0815 
    108 H108       23.8397   29.4978    4.9148 H         1 UNK         0.0815 
    109 H109       24.3787   27.8384    4.7168 H         1 UNK         0.0815 
    110 H110       26.4784   30.2391    2.4521 H         1 UNK         0.2987 
    111 H111       25.7979   32.9609    2.9521 H         1 UNK         0.0949 
    112 H112       27.2114   31.7182    0.5376 H         1 UNK         0.0806 
    113 H113       25.4676   31.8333    0.7608 H         1 UNK         0.0806 
    114 H114       26.4318   33.2907    0.5820 H         1 UNK         0.0806 
    115 H115       29.0037   31.3719    2.6606 H         1 UNK         0.3010 
    116 H116       30.3425   33.9852    3.2948 H         1 UNK         0.0829 
    117 H117       31.2227   31.7548    1.3863 H         1 UNK         0.0813 
    118 H118       30.6838   33.3661    0.9271 H         1 UNK         0.0813 
    119 H119       32.1877   33.1661    1.8098 H         1 UNK         0.0813 
    120 H120       30.2387   30.5119    3.8850 H         1 UNK         0.3038 
    121 H121       30.9530   29.1998    5.5038 H         1 UNK         0.0769 
    122 H122       31.8178   30.0031    7.6585 H         1 UNK         0.0811 
    123 H123       32.0091   31.6304    7.0294 H         1 UNK         0.0811 
    124 H124       30.4003   30.9248    7.1864 H         1 UNK         0.0811 
    125 H125       33.4485   31.6335    4.8217 H         1 UNK         0.3204 
    126 H126       35.6447   29.6793    4.8698 H         1 UNK         0.0748 
    127 H127       37.0083   31.6609    4.1878 H         1 UNK         0.0771 
    128 H128       35.5468   32.6208    3.9944 H         1 UNK         0.0771 
    129 H129       36.0175   32.0321    5.5882 H         1 UNK         0.0771 
    130 H130       33.2807   30.6033    2.5799 H         1 UNK         0.2980 
    131 H131       32.8793   30.2551    0.4546 H         1 UNK         0.0545 
    132 H132       35.7212   32.7167   -0.3948 H         1 UNK         0.3459 
    133 H133       35.1044   32.3289    1.1908 H         1 UNK         0.3459 
    134 H134       33.9143   28.3690   -0.8023 H         1 UNK         0.0616 
    135 H135       35.1190   28.1770    0.4372 H         1 UNK         0.0616 
    136 H136       34.3334   27.0287    3.0369 H         1 UNK         0.0634 
    137 H137       34.9441   26.1830    1.6323 H         1 UNK         0.0634 
@<TRIPOS>BOND
     1    1    2 1    
     2    1   72 1    
     3    1   73 1    
     4    1   74 1    
     5    2    3 2    
     6    2    4 am   BACKBONE|DICT|INTERRES
     7    4    5 1    
     8    4   75 1    
     9    5    6 1    
    10    5   35 1    
    11    5   76 1    
    12    6    7 1    
    13    6   77 1    
    14    6   78 1    
    15    7    8 1    
    16    8    9 1    
    17    8   79 1    
    18    8   80 1    
    19    9   10 ar   
    20    9   14 ar   
    21   10   11 ar   
    22   10   81 1    
    23   11   12 ar   
    24   11   71 1    
    25   12   13 ar   
    26   12   82 1    
    27   13   14 ar   
    28   13   15 1    
    29   14   83 1    
    30   15   16 1    
    31   15   84 1    
    32   15   85 1    
    33   16   17 1    
    34   17   18 1    
    35   17   86 1    
    36   17   87 1    
    37   18   19 1    
    38   18   37 1    
    39   18   88 1    
    40   19   20 am   BACKBONE|DICT|INTERRES
    41   19   89 1    
    42   20   21 2    
    43   20   22 1    
    44   22   23 1    
    45   22   24 1    
    46   22   90 1    
    47   23   91 1    
    48   23   92 1    
    49   23   93 1    
    50   24   25 am   BACKBONE|DICT|INTERRES
    51   24   94 1    
    52   25   26 2    
    53   25   27 1    
    54   27   28 1    
    55   27   29 1    
    56   27   95 1    
    57   28   96 1    
    58   28   97 1    
    59   28   98 1    
    60   29   30 am   BACKBONE|DICT|INTERRES
    61   29   99 1    
    62   30   31 2    
    63   30   32 1    
    64   32   33 1    
    65   32   34 1    
    66   32  100 1    
    67   33  101 1    
    68   33  102 1    
    69   33  103 1    
    70   34   35 am   BACKBONE|DICT|INTERRES
    71   34  104 1    
    72   35   36 2    
    73   37   38 2    
    74   37   39 am   BACKBONE|DICT|INTERRES
    75   39   40 1    
    76   39  105 1    
    77   40   41 1    
    78   40   42 1    
    79   40  106 1    
    80   41  107 1    
    81   41  108 1    
    82   41  109 1    
    83   42   43 2    
    84   42   44 am   BACKBONE|DICT|INTERRES
    85   44   45 1    
    86   44  110 1    
    87   45   46 1    
    88   45   47 1    
    89   45  111 1    
    90   46  112 1    
    91   46  113 1    
    92   46  114 1    
    93   47   48 2    
    94   47   49 am   BACKBONE|DICT|INTERRES
    95   49   50 1    
    96   49  115 1    
    97   50   51 1    
    98   50   52 1    
    99   50  116 1    
   100   51  117 1    
   101   51  118 1    
   102   51  119 1    
   103   52   53 2    
   104   52   54 am   BACKBONE|DICT|INTERRES
   105   54   55 1    
   106   54  120 1    
   107   55   56 1    
   108   55   57 1    
   109   55  121 1    
   110   56  122 1    
   111   56  123 1    
   112   56  124 1    
   113   57   58 2    
   114   57   59 am   BACKBONE|DICT|INTERRES
   115   59   60 1    
   116   59  125 1    
   117   60   61 1    
   118   60   62 1    
   119   60  126 1    
   120   61  127 1    
   121   61  128 1    
   122   61  129 1    
   123   62   63 2    
   124   62   64 am   BACKBONE|DICT|INTERRES
   125   64   65 1    
   126   64  130 1    
   127   65   66 1    
   128   65   69 1    
   129   65  131 1    
   130   66   67 am   BACKBONE|DICT|INTERRES
   131   66   68 2    
   132   67  132 1    
   133   67  133 1    
   134   69   70 1    
   135   69  134 1    
   136   69  135 1    
   137   70   71 1    
   138   71  136 1    
   139   71  137 1    
@<TRIPOS>SUBSTRUCTURE
     1 UNK         1 GROUP             0       ****    0 ROOT    
