@<TRIPOS>MOLECULE
3R136
137   139    1
SMALL
USER_CHARGES


@<TRIPOS>ATOM
      1 CA         27.2299   22.2726    1.3830 C.3       0 UNK        -0.1979 
      2 C          27.9904   22.6540    0.1207 C.2       0 UNK         0.4864 
      3 O          27.8354   21.9984   -0.9110 O.2       0 UNK        -0.5359 
      4 N          28.8167   23.7028    0.2013 N.am      1 UNK        -0.4318 
      5 CA         29.5723   24.2736   -0.9132 C.3       1 UNK         0.0824 
      6 C6         30.9863   24.7446   -0.4818 C.3       12 UNK        -0.0944 
      7 S7         31.0245   25.6957    1.0807 S.3       12 UNK        -0.2672 
      8 C8         31.6728   24.4246    2.2105 C.3       12 UNK         0.0333 
      9 C9         31.3672   24.7707    3.6565 C.ar      12 UNK        -0.0807 
     10 C10        32.3619   25.2804    4.4947 C.ar      12 UNK        -0.0894 
     11 C11        32.0725   25.5867    5.8275 C.ar      12 UNK        -0.0804 
     12 C12        30.7726   25.4000    6.3109 C.ar      12 UNK        -0.0824 
     13 C13        29.7651   24.8929    5.4822 C.ar      12 UNK        -0.0762 
     14 C14        30.0804   24.5632    4.1590 C.ar      12 UNK        -0.0782 
     15 C15        28.3639   24.6815    6.0593 C.3       12 UNK         0.0230 
     16 S16        26.9995   24.7038    4.8406 S.3       12 UNK        -0.2608 
     17 C17        27.0165   26.4419    4.2817 C.3       12 UNK        -0.0989 
     18 CA         26.9485   26.5723    2.7325 C.3       5 UNK         0.0716 
     19 N          25.7585   25.9374    2.1458 N.am      5 UNK        -0.4135 
     20 C          24.4766   26.2800    2.3430 C.2       4 UNK         0.5031 
     21 O          24.1110   27.1991    3.0782 O.2       4 UNK        -0.5229 
     22 CA         23.4285   25.4688    1.5509 C.3       4 UNK         0.0329 
     23 CB         21.9880   25.7420    2.0233 C.3       4 UNK        -0.2001 
     24 N          23.5110   25.7309    0.1102 N.am      4 UNK        -0.4303 
     25 C          24.4808   25.2817   -0.6955 C.2       3 UNK         0.5044 
     26 O          25.3943   24.5561   -0.2982 O.2       3 UNK        -0.5152 
     27 CA         24.4758   25.7362   -2.1628 C.3       3 UNK         0.0319 
     28 CB         23.5660   26.9508   -2.4538 C.3       3 UNK        -0.2001 
     29 N          25.8641   26.0128   -2.5169 N.am      3 UNK        -0.4354 
     30 C          26.3915   26.1027   -3.7387 C.2       2 UNK         0.4964 
     31 O          25.7290   26.0555   -4.7756 O.2       2 UNK        -0.5047 
     32 CA         27.9252   26.2338   -3.8320 C.3       2 UNK         0.0288 
     33 CB         28.3791   27.7033   -3.7433 C.3       2 UNK        -0.2113 
     34 N          28.6832   25.3697   -2.9098 N.am      2 UNK        -0.4145 
     35 C          28.7445   25.3961   -1.5688 C.2       1 UNK         0.5006 
     36 O          28.1724   26.2359   -0.8622 O.2       1 UNK        -0.5103 
     37 C          27.0840   28.0345    2.2499 C.2       5 UNK         0.5055 
     38 O          27.3251   28.9356    3.0541 O.2       5 UNK        -0.5220 
     39 N          26.8982   28.2535    0.9408 N.am      6 UNK        -0.4450 
     40 CA         26.9040   29.5836    0.3271 C.3       6 UNK         0.0367 
     41 CB         26.0729   29.5639   -0.9641 C.3       6 UNK        -0.1929 
     42 C          28.3207   30.1163    0.0697 C.2       6 UNK         0.5070 
     43 O          28.5263   31.3279    0.1377 O.2       6 UNK        -0.5237 
     44 N          29.2755   29.2146   -0.1952 N.am      7 UNK        -0.4739 
     45 CA         30.6899   29.5496   -0.3991 C.3       7 UNK         0.0276 
     46 CB         31.2758   28.6325   -1.4840 C.3       7 UNK        -0.1927 
     47 C          31.5167   29.4975    0.9003 C.2       7 UNK         0.5013 
     48 O          32.7366   29.6645    0.8437 O.2       7 UNK        -0.5193 
     49 N          30.8609   29.2938    2.0518 N.am      8 UNK        -0.4253 
     50 CA         31.4551   29.1886    3.3896 C.3       8 UNK         0.0242 
     51 CB         30.4388   28.4977    4.3147 C.3       8 UNK        -0.2000 
     52 C          31.9409   30.5422    3.9566 C.2       8 UNK         0.4948 
     53 O          31.6179   30.8908    5.0934 O.2       8 UNK        -0.5275 
     54 N          32.6991   31.2931    3.1495 N.am      9 UNK        -0.4246 
     55 CA         33.2708   32.5964    3.4952 C.3       9 UNK         0.0261 
     56 CB         33.4224   33.4279    2.2106 C.3       9 UNK        -0.1959 
     57 C          34.6224   32.4804    4.2214 C.2       9 UNK         0.5033 
     58 O          35.0146   33.4265    4.9061 O.2       9 UNK        -0.5390 
     59 N          35.3152   31.3475    4.0420 N.am      10 UNK        -0.4215 
     60 CA         36.6006   31.0336    4.6623 C.3       10 UNK         0.0240 
     61 CB         37.4525   30.2139    3.6702 C.3       10 UNK        -0.1982 
     62 C          36.3632   30.3290    6.0086 C.2       10 UNK         0.4970 
     63 O          36.1154   31.0082    7.0054 O.2       10 UNK        -0.4916 
     64 N          36.4450   28.9911    6.0110 N.am      11 UNK        -0.4279 
     65 CA         36.2345   28.1016    7.1696 C.3       11 UNK         0.1003 
     66 C          37.3231   28.2064    8.2825 C.2       11 UNK         0.5709 
     67 N          38.4838   28.7955    8.0195 N.am      11 UNK        -0.7358 
     68 O          37.1325   27.7156    9.3932 O.2       11 UNK        -0.4999 
     69 C69        34.7861   28.1659    7.7387 C.3       12 UNK        -0.0954 
     70 S70        33.5086   27.8602    6.4732 S.3       12 UNK        -0.2268 
     71 C71        33.1705   26.0966    6.7487 C.3       12 UNK         0.0203 
     72 H72        27.5143   21.2716    1.7057 H         1 UNK         0.0888 
     73 H73        27.4248   22.9629    2.2031 H         1 UNK         0.0888 
     74 H74        26.1577   22.2769    1.1877 H         1 UNK         0.0888 
     75 H75        28.8883   24.2288    1.0586 H         1 UNK         0.3017 
     76 H76        29.7213   23.4947   -1.6646 H         1 UNK         0.0873 
     77 H77        31.6291   23.8700   -0.3712 H         1 UNK         0.0745 
     78 H78        31.4589   25.3317   -1.2702 H         1 UNK         0.0745 
     79 H79        31.2286   23.4559    1.9760 H         1 UNK         0.0705 
     80 H80        32.7473   24.3183    2.0532 H         1 UNK         0.0705 
     81 H81        33.3626   25.4346    4.1145 H         1 UNK         0.1334 
     82 H82        30.5472   25.6419    7.3408 H         1 UNK         0.1417 
     83 H83        29.3253   24.1486    3.5083 H         1 UNK         0.1562 
     84 H84        28.1557   25.4376    6.8182 H         1 UNK         0.0748 
     85 H85        28.3487   23.7190    6.5719 H         1 UNK         0.0748 
     86 H86        27.9183   26.9235    4.6618 H         1 UNK         0.0940 
     87 H87        26.1826   26.9643    4.7532 H         1 UNK         0.0940 
     88 H88        27.8113   26.0478    2.3191 H         1 UNK         0.0703 
     89 H89        25.9284   25.2182    1.4488 H         1 UNK         0.3081 
     90 H90        23.6368   24.4109    1.7264 H         1 UNK         0.0719 
     91 H91        21.8830   25.5411    3.0904 H         1 UNK         0.0809 
     92 H92        21.6960   26.7797    1.8567 H         1 UNK         0.0809 
     93 H93        21.2723   25.1043    1.5040 H         1 UNK         0.0809 
     94 H94        22.8140   26.3509   -0.2761 H         1 UNK         0.2990 
     95 H95        24.1329   24.8881   -2.7583 H         1 UNK         0.0690 
     96 H96        23.6422   27.2661   -3.4943 H         1 UNK         0.0788 
     97 H97        23.8189   27.8084   -1.8329 H         1 UNK         0.0788 
     98 H98        22.5168   26.7098   -2.2794 H         1 UNK         0.0788 
     99 H99        26.5141   26.0011   -1.7344 H         1 UNK         0.2993 
    100 H100       28.1854   25.8842   -4.8327 H         1 UNK         0.0949 
    101 H101       28.3050   28.1017   -2.7331 H         1 UNK         0.0767 
    102 H102       29.4138   27.8073   -4.0681 H         1 UNK         0.0767 
    103 H103       27.7754   28.3413   -4.3903 H         1 UNK         0.0767 
    104 H104       29.1741   24.6161   -3.3715 H         1 UNK         0.3013 
    105 H105       26.8105   27.4579    0.3213 H         1 UNK         0.3121 
    106 H106       26.4224   30.2854    1.0121 H         1 UNK         0.0774 
    107 H107       25.0167   29.4266   -0.7365 H         1 UNK         0.0815 
    108 H108       26.1616   30.5069   -1.5055 H         1 UNK         0.0815 
    109 H109       26.3800   28.7672   -1.6399 H         1 UNK         0.0815 
    110 H110       29.0243   28.2332   -0.2380 H         1 UNK         0.2987 
    111 H111       30.7734   30.5749   -0.7662 H         1 UNK         0.0949 
    112 H112       31.1396   27.5828   -1.2365 H         1 UNK         0.0806 
    113 H113       30.8019   28.8161   -2.4467 H         1 UNK         0.0806 
    114 H114       32.3446   28.8028   -1.6198 H         1 UNK         0.0806 
    115 H115       29.8553   29.2153    2.0056 H         1 UNK         0.3010 
    116 H116       32.3309   28.5395    3.3208 H         1 UNK         0.0829 
    117 H117       29.5455   29.1055    4.4570 H         1 UNK         0.0813 
    118 H118       30.8617   28.3145    5.3018 H         1 UNK         0.0813 
    119 H119       30.1351   27.5320    3.9121 H         1 UNK         0.0813 
    120 H120       32.9000   30.9208    2.2238 H         1 UNK         0.3038 
    121 H121       32.5833   33.1228    4.1610 H         1 UNK         0.0769 
    122 H122       32.4611   33.5734    1.7173 H         1 UNK         0.0811 
    123 H123       34.0970   32.9522    1.4976 H         1 UNK         0.0811 
    124 H124       33.8252   34.4176    2.4311 H         1 UNK         0.0811 
    125 H125       34.8911   30.6213    3.4839 H         1 UNK         0.3204 
    126 H126       37.1427   31.9578    4.8748 H         1 UNK         0.0748 
    127 H127       36.9440   29.3123    3.3266 H         1 UNK         0.0771 
    128 H128       37.6930   30.8065    2.7871 H         1 UNK         0.0771 
    129 H129       38.4014   29.9145    4.1178 H         1 UNK         0.0771 
    130 H130       36.6726   28.5252    5.1454 H         1 UNK         0.2980 
    131 H131       36.3667   27.0946    6.7729 H         1 UNK         0.0545 
    132 H132       38.6638   29.1911    7.1112 H         1 UNK         0.3459 
    133 H133       39.1849   28.8470    8.7418 H         1 UNK         0.3459 
    134 H134       34.5933   29.1427    8.1844 H         1 UNK         0.0616 
    135 H135       34.6550   27.4422    8.5448 H         1 UNK         0.0616 
    136 H136       34.0848   25.5246    6.5833 H         1 UNK         0.0634 
    137 H137       32.8915   25.9411    7.7920 H         1 UNK         0.0634 
@<TRIPOS>BOND
     1    1    2 1    
     2    1   72 1    
     3    1   73 1    
     4    1   74 1    
     5    2    3 2    
     6    2    4 am   BACKBONE|DICT|INTERRES
     7    4    5 1    
     8    4   75 1    
     9    5    6 1    
    10    5   35 1    
    11    5   76 1    
    12    6    7 1    
    13    6   77 1    
    14    6   78 1    
    15    7    8 1    
    16    8    9 1    
    17    8   79 1    
    18    8   80 1    
    19    9   10 ar   
    20    9   14 ar   
    21   10   11 ar   
    22   10   81 1    
    23   11   12 ar   
    24   11   71 1    
    25   12   13 ar   
    26   12   82 1    
    27   13   14 ar   
    28   13   15 1    
    29   14   83 1    
    30   15   16 1    
    31   15   84 1    
    32   15   85 1    
    33   16   17 1    
    34   17   18 1    
    35   17   86 1    
    36   17   87 1    
    37   18   19 1    
    38   18   37 1    
    39   18   88 1    
    40   19   20 am   BACKBONE|DICT|INTERRES
    41   19   89 1    
    42   20   21 2    
    43   20   22 1    
    44   22   23 1    
    45   22   24 1    
    46   22   90 1    
    47   23   91 1    
    48   23   92 1    
    49   23   93 1    
    50   24   25 am   BACKBONE|DICT|INTERRES
    51   24   94 1    
    52   25   26 2    
    53   25   27 1    
    54   27   28 1    
    55   27   29 1    
    56   27   95 1    
    57   28   96 1    
    58   28   97 1    
    59   28   98 1    
    60   29   30 am   BACKBONE|DICT|INTERRES
    61   29   99 1    
    62   30   31 2    
    63   30   32 1    
    64   32   33 1    
    65   32   34 1    
    66   32  100 1    
    67   33  101 1    
    68   33  102 1    
    69   33  103 1    
    70   34   35 am   BACKBONE|DICT|INTERRES
    71   34  104 1    
    72   35   36 2    
    73   37   38 2    
    74   37   39 am   BACKBONE|DICT|INTERRES
    75   39   40 1    
    76   39  105 1    
    77   40   41 1    
    78   40   42 1    
    79   40  106 1    
    80   41  107 1    
    81   41  108 1    
    82   41  109 1    
    83   42   43 2    
    84   42   44 am   BACKBONE|DICT|INTERRES
    85   44   45 1    
    86   44  110 1    
    87   45   46 1    
    88   45   47 1    
    89   45  111 1    
    90   46  112 1    
    91   46  113 1    
    92   46  114 1    
    93   47   48 2    
    94   47   49 am   BACKBONE|DICT|INTERRES
    95   49   50 1    
    96   49  115 1    
    97   50   51 1    
    98   50   52 1    
    99   50  116 1    
   100   51  117 1    
   101   51  118 1    
   102   51  119 1    
   103   52   53 2    
   104   52   54 am   BACKBONE|DICT|INTERRES
   105   54   55 1    
   106   54  120 1    
   107   55   56 1    
   108   55   57 1    
   109   55  121 1    
   110   56  122 1    
   111   56  123 1    
   112   56  124 1    
   113   57   58 2    
   114   57   59 am   BACKBONE|DICT|INTERRES
   115   59   60 1    
   116   59  125 1    
   117   60   61 1    
   118   60   62 1    
   119   60  126 1    
   120   61  127 1    
   121   61  128 1    
   122   61  129 1    
   123   62   63 2    
   124   62   64 am   BACKBONE|DICT|INTERRES
   125   64   65 1    
   126   64  130 1    
   127   65   66 1    
   128   65   69 1    
   129   65  131 1    
   130   66   67 am   BACKBONE|DICT|INTERRES
   131   66   68 2    
   132   67  132 1    
   133   67  133 1    
   134   69   70 1    
   135   69  134 1    
   136   69  135 1    
   137   70   71 1    
   138   71  136 1    
   139   71  137 1    
@<TRIPOS>SUBSTRUCTURE
     1 UNK         1 GROUP             0       ****    0 ROOT    
