@<TRIPOS>MOLECULE
3R136
137   139    1
SMALL
USER_CHARGES


@<TRIPOS>ATOM
      1 CA         26.8110   24.5883   -5.2634 C.3       0 UNK        -0.1979 
      2 C          27.3996   24.9895   -3.9189 C.2       0 UNK         0.4864 
      3 O          26.9125   25.9343   -3.2984 O.2       0 UNK        -0.5359 
      4 N          28.4503   24.2860   -3.4741 N.am      1 UNK        -0.4318 
      5 CA         29.1091   24.4841   -2.1776 C.3       1 UNK         0.0824 
      6 C6         30.5542   23.8813   -2.1794 C.3       12 UNK        -0.0944 
      7 S7         31.2074   23.1627   -0.6281 S.3       12 UNK        -0.2672 
      8 C8         31.5623   24.6794    0.3148 C.3       12 UNK         0.0333 
      9 C9         31.3769   24.5084    1.8182 C.ar      12 UNK        -0.0807 
     10 C10        32.3037   25.0677    2.7044 C.ar      12 UNK        -0.0894 
     11 C11        32.0993   24.9947    4.0859 C.ar      12 UNK        -0.0804 
     12 C12        30.9627   24.3491    4.5809 C.ar      12 UNK        -0.0824 
     13 C13        30.0193   23.8025    3.7079 C.ar      12 UNK        -0.0762 
     14 C14        30.2416   23.8690    2.3305 C.ar      12 UNK        -0.0782 
     15 C15        28.7383   23.1859    4.2548 C.3       12 UNK         0.0230 
     16 S16        27.2400   24.0782    3.7119 S.3       12 UNK        -0.2608 
     17 C17        27.6260   25.8194    4.1316 C.3       12 UNK        -0.0989 
     18 CA         27.9709   26.6532    2.8649 C.3       5 UNK         0.0716 
     19 N          26.8880   26.6384    1.8704 N.am      5 UNK        -0.4135 
     20 C          25.7039   27.2650    1.9621 C.2       4 UNK         0.5031 
     21 O          25.3930   28.0387    2.8684 O.2       4 UNK        -0.5229 
     22 CA         24.6812   26.9502    0.8599 C.3       4 UNK         0.0329 
     23 CB         25.1757   27.4189   -0.5189 C.3       4 UNK        -0.2001 
     24 N          24.3782   25.5206    0.8198 N.am      4 UNK        -0.4303 
     25 C          23.7046   24.8479    1.7626 C.2       3 UNK         0.5044 
     26 O          23.1449   25.3883    2.7172 O.2       3 UNK        -0.5152 
     27 CA         23.6555   23.3118    1.6490 C.3       3 UNK         0.0319 
     28 CB         22.4514   22.8477    0.8056 C.3       3 UNK        -0.2001 
     29 N          24.9150   22.6985    1.1992 N.am      3 UNK        -0.4354 
     30 C          25.4986   22.7739   -0.0042 C.2       2 UNK         0.4964 
     31 O          25.0057   23.3468   -0.9786 O.2       2 UNK        -0.5047 
     32 CA         26.8747   22.1015   -0.1261 C.3       2 UNK         0.0288 
     33 CB         26.7197   20.6196   -0.5039 C.3       2 UNK        -0.2113 
     34 N          27.7314   22.7586   -1.1145 N.am      2 UNK        -0.4145 
     35 C          28.1916   24.0155   -1.0256 C.2       1 UNK         0.5006 
     36 O          27.9272   24.7867   -0.0985 O.2       1 UNK        -0.5103 
     37 C          28.5030   28.0728    3.1818 C.2       5 UNK         0.5055 
     38 O          28.9398   28.3368    4.3030 O.2       5 UNK        -0.5220 
     39 N          28.4596   28.9629    2.1797 N.am      6 UNK        -0.4450 
     40 CA         28.8955   30.3601    2.2689 C.3       6 UNK         0.0367 
     41 CB         27.8922   31.2355    1.4992 C.3       6 UNK        -0.1929 
     42 C          30.3198   30.5769    1.7268 C.2       6 UNK         0.5070 
     43 O          30.8407   31.6882    1.8448 O.2       6 UNK        -0.5237 
     44 N          30.9206   29.5350    1.1333 N.am      7 UNK        -0.4739 
     45 CA         32.2549   29.5453    0.5257 C.3       7 UNK         0.0276 
     46 CB         32.5491   28.1527   -0.0512 C.3       7 UNK        -0.1927 
     47 C          33.3612   29.9536    1.5126 C.2       7 UNK         0.5013 
     48 O          33.2573   29.6526    2.7034 O.2       7 UNK        -0.5193 
     49 N          34.3931   30.6332    0.9911 N.am      8 UNK        -0.4253 
     50 CA         35.5283   31.2040    1.7306 C.3       8 UNK         0.0242 
     51 CB         36.4295   30.0854    2.2987 C.3       8 UNK        -0.2000 
     52 C          35.0886   32.2222    2.8033 C.2       8 UNK         0.4948 
     53 O          35.6381   32.2243    3.9055 O.2       8 UNK        -0.5275 
     54 N          34.0858   33.0488    2.4613 N.am      9 UNK        -0.4246 
     55 CA         33.4253   34.0428    3.3185 C.3       9 UNK         0.0261 
     56 CB         34.3768   35.2209    3.6197 C.3       9 UNK        -0.1959 
     57 C          32.8329   33.4029    4.5897 C.2       9 UNK         0.5033 
     58 O          33.1410   33.8358    5.7021 O.2       9 UNK        -0.5390 
     59 N          32.0142   32.3616    4.3811 N.am      10 UNK        -0.4215 
     60 CA         31.4242   31.4785    5.3916 C.3       10 UNK         0.0240 
     61 CB         30.4066   32.2366    6.2708 C.3       10 UNK        -0.1982 
     62 C          32.4944   30.7200    6.2002 C.2       10 UNK         0.4970 
     63 O          32.5065   30.7877    7.4314 O.2       10 UNK        -0.4916 
     64 N          33.3505   29.9880    5.4762 N.am      11 UNK        -0.4279 
     65 CA         34.3409   29.0339    6.0006 C.3       11 UNK         0.1003 
     66 C          35.5091   29.6929    6.7928 C.2       11 UNK         0.5709 
     67 N          35.9477   30.8923    6.4332 N.am      11 UNK        -0.7358 
     68 O          36.0447   29.1104    7.7338 O.2       11 UNK        -0.4999 
     69 C69        33.6915   27.8323    6.7534 C.3       12 UNK        -0.0954 
     70 S70        32.2925   27.0850    5.8511 S.3       12 UNK        -0.2268 
     71 C71        33.0747   25.6549    5.0486 C.3       12 UNK         0.0203 
     72 H72        25.7689   24.2938   -5.1418 H         1 UNK         0.0888 
     73 H73        26.8493   25.4290   -5.9557 H         1 UNK         0.0888 
     74 H74        27.3489   23.7539   -5.7132 H         1 UNK         0.0888 
     75 H75        28.8107   23.5337   -4.0438 H         1 UNK         0.3017 
     76 H76        29.2225   25.5616   -2.0368 H         1 UNK         0.0873 
     77 H77        30.6128   23.0722   -2.9093 H         1 UNK         0.0745 
     78 H78        31.2611   24.6316   -2.5378 H         1 UNK         0.0745 
     79 H79        30.8980   25.4802   -0.0117 H         1 UNK         0.0705 
     80 H80        32.5786   24.9985    0.0792 H         1 UNK         0.0705 
     81 H81        33.1721   25.5852    2.3204 H         1 UNK         0.1334 
     82 H82        30.7952   24.3135    5.6489 H         1 UNK         0.1417 
     83 H83        29.5003   23.4632    1.6567 H         1 UNK         0.1562 
     84 H84        28.7539   23.1622    5.3456 H         1 UNK         0.0748 
     85 H85        28.6714   22.1480    3.9262 H         1 UNK         0.0748 
     86 H86        28.4463   25.8399    4.8510 H         1 UNK         0.0940 
     87 H87        26.7666   26.2513    4.6470 H         1 UNK         0.0940 
     88 H88        28.8097   26.1633    2.3725 H         1 UNK         0.0703 
     89 H89        27.0502   26.0077    1.0882 H         1 UNK         0.3081 
     90 H90        23.7596   27.4890    1.0904 H         1 UNK         0.0719 
     91 H91        26.0693   26.8814   -0.8389 H         1 UNK         0.0809 
     92 H92        24.4123   27.2704   -1.2828 H         1 UNK         0.0809 
     93 H93        25.4187   28.4822   -0.5071 H         1 UNK         0.0809 
     94 H94        24.7700   24.9801    0.0543 H         1 UNK         0.2990 
     95 H95        23.5023   22.9358    2.6620 H         1 UNK         0.0690 
     96 H96        22.3912   21.7601    0.7647 H         1 UNK         0.0788 
     97 H97        22.4971   23.2207   -0.2178 H         1 UNK         0.0788 
     98 H98        21.5165   23.2083    1.2366 H         1 UNK         0.0788 
     99 H99        25.4270   22.2251    1.9315 H         1 UNK         0.2993 
    100 H100       27.3791   22.1685    0.8406 H         1 UNK         0.0949 
    101 H101       27.6863   20.1169   -0.5452 H         1 UNK         0.0767 
    102 H102       26.1119   20.0885    0.2301 H         1 UNK         0.0767 
    103 H103       26.2360   20.5002   -1.4745 H         1 UNK         0.0767 
    104 H104       27.9775   22.2158   -1.9282 H         1 UNK         0.3013 
    105 H105       28.0714   28.6656    1.2961 H         1 UNK         0.3121 
    106 H106       28.8927   30.6841    3.3116 H         1 UNK         0.0774 
    107 H107       28.1530   32.2919    1.5787 H         1 UNK         0.0815 
    108 H108       27.8661   30.9856    0.4378 H         1 UNK         0.0815 
    109 H109       26.8831   31.1226    1.8962 H         1 UNK         0.0815 
    110 H110       30.4316   28.6537    1.1282 H         1 UNK         0.2987 
    111 H111       32.2324   30.2690   -0.2918 H         1 UNK         0.0949 
    112 H112       33.5159   28.1318   -0.5561 H         1 UNK         0.0806 
    113 H113       32.5782   27.4003    0.7365 H         1 UNK         0.0806 
    114 H114       31.7973   27.8535   -0.7816 H         1 UNK         0.0806 
    115 H115       34.3877   30.8186   -0.0029 H         1 UNK         0.3010 
    116 H116       36.1199   31.7663    1.0065 H         1 UNK         0.0829 
    117 H117       36.7430   29.3930    1.5176 H         1 UNK         0.0813 
    118 H118       37.3343   30.5007    2.7445 H         1 UNK         0.0813 
    119 H119       35.9230   29.5096    3.0733 H         1 UNK         0.0813 
    120 H120       33.6871   32.9400    1.5390 H         1 UNK         0.3038 
    121 H121       32.5816   34.4363    2.7492 H         1 UNK         0.0769 
    122 H122       33.8634   36.0022    4.1815 H         1 UNK         0.0811 
    123 H123       34.7503   35.6742    2.7017 H         1 UNK         0.0811 
    124 H124       35.2366   34.9071    4.2127 H         1 UNK         0.0811 
    125 H125       31.8083   32.1083    3.4162 H         1 UNK         0.3204 
    126 H126       30.8708   30.7147    4.8432 H         1 UNK         0.0748 
    127 H127       29.8944   31.5519    6.9479 H         1 UNK         0.0771 
    128 H128       30.8853   33.0008    6.8838 H         1 UNK         0.0771 
    129 H129       29.6433   32.7223    5.6630 H         1 UNK         0.0771 
    130 H130       33.2656   29.9893    4.4605 H         1 UNK         0.2980 
    131 H131       34.8181   28.6161    5.1142 H         1 UNK         0.0545 
    132 H132       36.7042   31.3106    6.9491 H         1 UNK         0.3459 
    133 H133       35.5866   31.3615    5.6066 H         1 UNK         0.3459 
    134 H134       34.4355   27.0598    6.9552 H         1 UNK         0.0616 
    135 H135       33.3201   28.1538    7.7277 H         1 UNK         0.0616 
    136 H136       33.3907   24.9366    5.8064 H         1 UNK         0.0634 
    137 H137       33.9744   25.9831    4.5257 H         1 UNK         0.0634 
@<TRIPOS>BOND
     1    1    2 1    
     2    1   72 1    
     3    1   73 1    
     4    1   74 1    
     5    2    3 2    
     6    2    4 am   BACKBONE|DICT|INTERRES
     7    4    5 1    
     8    4   75 1    
     9    5    6 1    
    10    5   35 1    
    11    5   76 1    
    12    6    7 1    
    13    6   77 1    
    14    6   78 1    
    15    7    8 1    
    16    8    9 1    
    17    8   79 1    
    18    8   80 1    
    19    9   10 ar   
    20    9   14 ar   
    21   10   11 ar   
    22   10   81 1    
    23   11   12 ar   
    24   11   71 1    
    25   12   13 ar   
    26   12   82 1    
    27   13   14 ar   
    28   13   15 1    
    29   14   83 1    
    30   15   16 1    
    31   15   84 1    
    32   15   85 1    
    33   16   17 1    
    34   17   18 1    
    35   17   86 1    
    36   17   87 1    
    37   18   19 1    
    38   18   37 1    
    39   18   88 1    
    40   19   20 am   BACKBONE|DICT|INTERRES
    41   19   89 1    
    42   20   21 2    
    43   20   22 1    
    44   22   23 1    
    45   22   24 1    
    46   22   90 1    
    47   23   91 1    
    48   23   92 1    
    49   23   93 1    
    50   24   25 am   BACKBONE|DICT|INTERRES
    51   24   94 1    
    52   25   26 2    
    53   25   27 1    
    54   27   28 1    
    55   27   29 1    
    56   27   95 1    
    57   28   96 1    
    58   28   97 1    
    59   28   98 1    
    60   29   30 am   BACKBONE|DICT|INTERRES
    61   29   99 1    
    62   30   31 2    
    63   30   32 1    
    64   32   33 1    
    65   32   34 1    
    66   32  100 1    
    67   33  101 1    
    68   33  102 1    
    69   33  103 1    
    70   34   35 am   BACKBONE|DICT|INTERRES
    71   34  104 1    
    72   35   36 2    
    73   37   38 2    
    74   37   39 am   BACKBONE|DICT|INTERRES
    75   39   40 1    
    76   39  105 1    
    77   40   41 1    
    78   40   42 1    
    79   40  106 1    
    80   41  107 1    
    81   41  108 1    
    82   41  109 1    
    83   42   43 2    
    84   42   44 am   BACKBONE|DICT|INTERRES
    85   44   45 1    
    86   44  110 1    
    87   45   46 1    
    88   45   47 1    
    89   45  111 1    
    90   46  112 1    
    91   46  113 1    
    92   46  114 1    
    93   47   48 2    
    94   47   49 am   BACKBONE|DICT|INTERRES
    95   49   50 1    
    96   49  115 1    
    97   50   51 1    
    98   50   52 1    
    99   50  116 1    
   100   51  117 1    
   101   51  118 1    
   102   51  119 1    
   103   52   53 2    
   104   52   54 am   BACKBONE|DICT|INTERRES
   105   54   55 1    
   106   54  120 1    
   107   55   56 1    
   108   55   57 1    
   109   55  121 1    
   110   56  122 1    
   111   56  123 1    
   112   56  124 1    
   113   57   58 2    
   114   57   59 am   BACKBONE|DICT|INTERRES
   115   59   60 1    
   116   59  125 1    
   117   60   61 1    
   118   60   62 1    
   119   60  126 1    
   120   61  127 1    
   121   61  128 1    
   122   61  129 1    
   123   62   63 2    
   124   62   64 am   BACKBONE|DICT|INTERRES
   125   64   65 1    
   126   64  130 1    
   127   65   66 1    
   128   65   69 1    
   129   65  131 1    
   130   66   67 am   BACKBONE|DICT|INTERRES
   131   66   68 2    
   132   67  132 1    
   133   67  133 1    
   134   69   70 1    
   135   69  134 1    
   136   69  135 1    
   137   70   71 1    
   138   71  136 1    
   139   71  137 1    
@<TRIPOS>SUBSTRUCTURE
     1 UNK         1 GROUP             0       ****    0 ROOT    
