@<TRIPOS>MOLECULE
3R136
137   139    1
SMALL
USER_CHARGES


@<TRIPOS>ATOM
      1 CA         28.7135   20.0762   -0.0682 C.3       0 UNK        -0.1979 
      2 C          29.3810   21.0047   -1.0722 C.2       0 UNK         0.4864 
      3 O          29.4159   20.6949   -2.2645 O.2       0 UNK        -0.5359 
      4 N          29.9168   22.1354   -0.5972 N.am      1 UNK        -0.4318 
      5 CA         30.5161   23.1910   -1.4180 C.3       1 UNK         0.0824 
      6 C6         31.4846   24.0741   -0.5870 C.3       12 UNK        -0.0944 
      7 S7         30.7003   24.8983    0.8439 S.3       12 UNK        -0.2672 
      8 C8         31.6415   24.1833    2.2232 C.3       12 UNK         0.0333 
      9 C9         31.0895   24.6689    3.5520 C.ar      12 UNK        -0.0807 
     10 C10        31.6368   25.7906    4.1783 C.ar      12 UNK        -0.0894 
     11 C11        31.1223   26.2468    5.3952 C.ar      12 UNK        -0.0804 
     12 C12        30.0415   25.5807    5.9813 C.ar      12 UNK        -0.0824 
     13 C13        29.4791   24.4628    5.3557 C.ar      12 UNK        -0.0762 
     14 C14        30.0172   24.0039    4.1495 C.ar      12 UNK        -0.0782 
     15 C15        28.2837   23.7487    5.9671 C.3       12 UNK         0.0230 
     16 S16        26.8264   23.8390    4.8780 S.3       12 UNK        -0.2608 
     17 C17        26.2762   25.5649    5.1114 C.3       12 UNK        -0.0989 
     18 CA         26.8801   26.5954    4.1098 C.3       5 UNK         0.0716 
     19 N          26.8416   26.1707    2.7012 N.am      5 UNK        -0.4135 
     20 C          25.7578   25.8723    1.9702 C.2       4 UNK         0.5031 
     21 O          24.6134   25.8389    2.4254 O.2       4 UNK        -0.5229 
     22 CA         25.9869   25.6223    0.4652 C.3       4 UNK         0.0329 
     23 CB         24.7244   25.9155   -0.3722 C.3       4 UNK        -0.2001 
     24 N          27.1365   26.3334   -0.1149 N.am      4 UNK        -0.4303 
     25 C          27.3880   27.6549   -0.0993 C.2       3 UNK         0.5044 
     26 O          26.7345   28.4730    0.5530 O.2       3 UNK        -0.5152 
     27 CA         28.5798   28.1633   -0.9349 C.3       3 UNK         0.0319 
     28 CB         29.7512   28.5639   -0.0254 C.3       3 UNK        -0.2001 
     29 N          29.0575   27.2003   -1.9295 N.am      3 UNK        -0.4354 
     30 C          28.4112   26.8784   -3.0604 C.2       2 UNK         0.4964 
     31 O          27.3801   27.4343   -3.4393 O.2       2 UNK        -0.5047 
     32 CA         28.9954   25.7262   -3.9031 C.3       2 UNK         0.0288 
     33 CB         29.7935   26.2835   -5.0934 C.3       2 UNK        -0.2113 
     34 N          29.8438   24.7918   -3.1506 N.am      2 UNK        -0.4145 
     35 C          29.4329   24.0393   -2.1188 C.2       1 UNK         0.5006 
     36 O          28.2768   24.0552   -1.6852 O.2       1 UNK        -0.5103 
     37 C          26.2704   28.0017    4.3521 C.2       5 UNK         0.5055 
     38 O          26.2541   28.4491    5.4998 O.2       5 UNK        -0.5220 
     39 N          25.7751   28.6752    3.3034 N.am      6 UNK        -0.4450 
     40 CA         25.0477   29.9412    3.3819 C.3       6 UNK         0.0367 
     41 CB         23.9011   29.9326    2.3566 C.3       6 UNK        -0.1929 
     42 C          25.9844   31.1279    3.1403 C.2       6 UNK         0.5070 
     43 O          25.9933   32.0654    3.9380 O.2       6 UNK        -0.5237 
     44 N          26.7747   31.0578    2.0597 N.am      7 UNK        -0.4739 
     45 CA         27.7878   32.0663    1.7246 C.3       7 UNK         0.0276 
     46 CB         27.9941   32.0921    0.2011 C.3       7 UNK        -0.1927 
     47 C          29.1204   31.8353    2.4613 C.2       7 UNK         0.5013 
     48 O          29.9797   32.7176    2.4397 O.2       7 UNK        -0.5193 
     49 N          29.2639   30.6584    3.0898 N.am      8 UNK        -0.4253 
     50 CA         30.4217   30.1339    3.8188 C.3       8 UNK         0.0242 
     51 CB         30.7573   30.9929    5.0561 C.3       8 UNK        -0.2000 
     52 C          31.6447   29.9004    2.9176 C.2       8 UNK         0.4948 
     53 O          31.9837   28.7468    2.6562 O.2       8 UNK        -0.5275 
     54 N          32.2786   30.9895    2.4652 N.am      9 UNK        -0.4246 
     55 CA         33.4509   31.0811    1.5844 C.3       9 UNK         0.0261 
     56 CB         33.1260   30.5457    0.1755 C.3       9 UNK        -0.1959 
     57 C          34.7380   30.4400    2.1391 C.2       9 UNK         0.5033 
     58 O          35.7476   31.1332    2.2695 O.2       9 UNK        -0.5390 
     59 N          34.6922   29.1340    2.4247 N.am      10 UNK        -0.4215 
     60 CA         35.8260   28.3298    2.8832 C.3       10 UNK         0.0240 
     61 CB         35.5626   26.8499    2.5592 C.3       10 UNK        -0.1982 
     62 C          36.1291   28.5071    4.3795 C.2       10 UNK         0.4970 
     63 O          37.2961   28.4242    4.7649 O.2       10 UNK        -0.4916 
     64 N          35.0880   28.7239    5.1936 N.am      11 UNK        -0.4279 
     65 CA         35.2020   28.9253    6.6463 C.3       11 UNK         0.1003 
     66 C          35.8010   30.3145    6.9939 C.2       11 UNK         0.5709 
     67 N          36.6221   30.3963    8.0318 N.am      11 UNK        -0.7358 
     68 O          35.4929   31.3219    6.3594 O.2       11 UNK        -0.4999 
     69 C69        33.8504   28.7131    7.3776 C.3       12 UNK        -0.0954 
     70 S70        33.1470   27.0523    7.0982 S.3       12 UNK        -0.2268 
     71 C71        31.7238   27.4758    6.0544 C.3       12 UNK         0.0203 
     72 H72        27.6630   19.9409   -0.3243 H         1 UNK         0.0888 
     73 H73        29.1967   19.0997   -0.0806 H         1 UNK         0.0888 
     74 H74        28.7667   20.4680    0.9475 H         1 UNK         0.0888 
     75 H75        29.8192   22.3617    0.3817 H         1 UNK         0.3017 
     76 H76        31.1016   22.7082   -2.2040 H         1 UNK         0.0873 
     77 H77        32.3164   23.4602   -0.2379 H         1 UNK         0.0745 
     78 H78        31.9437   24.8419   -1.2123 H         1 UNK         0.0745 
     79 H79        31.5963   23.0942    2.1753 H         1 UNK         0.0705 
     80 H80        32.6933   24.4576    2.1256 H         1 UNK         0.0705 
     81 H81        32.4573   26.3172    3.7127 H         1 UNK         0.1334 
     82 H82        29.6341   25.9388    6.9170 H         1 UNK         0.1417 
     83 H83        29.5810   23.1420    3.6629 H         1 UNK         0.1562 
     84 H84        28.0367   24.1529    6.9500 H         1 UNK         0.0748 
     85 H85        28.5414   22.7002    6.1230 H         1 UNK         0.0748 
     86 H86        26.4964   25.8620    6.1385 H         1 UNK         0.0940 
     87 H87        25.1871   25.5646    5.0367 H         1 UNK         0.0940 
     88 H88        27.9399   26.6986    4.3436 H         1 UNK         0.0703 
     89 H89        27.7351   26.1571    2.2304 H         1 UNK         0.3081 
     90 H90        26.2102   24.5587    0.3685 H         1 UNK         0.0719 
     91 H91        24.4151   26.9574   -0.2807 H         1 UNK         0.0809 
     92 H92        24.8940   25.7080   -1.4289 H         1 UNK         0.0809 
     93 H93        23.8854   25.2956   -0.0536 H         1 UNK         0.0809 
     94 H94        27.7494   25.7430   -0.6686 H         1 UNK         0.2990 
     95 H95        28.2391   29.0552   -1.4644 H         1 UNK         0.0690 
     96 H96        30.5539   29.0286   -0.5971 H         1 UNK         0.0788 
     97 H97        30.1699   27.7117    0.5084 H         1 UNK         0.0788 
     98 H98        29.4358   29.2828    0.7274 H         1 UNK         0.0788 
     99 H99        29.9037   26.6992   -1.7018 H         1 UNK         0.2993 
    100 H100       28.1484   25.1576   -4.2936 H         1 UNK         0.0949 
    101 H101       29.1813   26.9599   -5.6920 H         1 UNK         0.0767 
    102 H102       30.6708   26.8427   -4.7653 H         1 UNK         0.0767 
    103 H103       30.1302   25.4853   -5.7553 H         1 UNK         0.0767 
    104 H104       30.8086   24.7301   -3.4438 H         1 UNK         0.3013 
    105 H105       25.8916   28.2842    2.3742 H         1 UNK         0.3121 
    106 H106       24.6072   30.0543    4.3751 H         1 UNK         0.0774 
    107 H107       24.2651   29.8044    1.3362 H         1 UNK         0.0815 
    108 H108       23.3409   30.8680    2.3894 H         1 UNK         0.0815 
    109 H109       23.1972   29.1257    2.5611 H         1 UNK         0.0815 
    110 H110       26.7028   30.2483    1.4487 H         1 UNK         0.2987 
    111 H111       27.4262   33.0520    2.0267 H         1 UNK         0.0949 
    112 H112       28.3415   31.1346   -0.1818 H         1 UNK         0.0806 
    113 H113       27.0683   32.3416   -0.3175 H         1 UNK         0.0806 
    114 H114       28.7335   32.8430   -0.0810 H         1 UNK         0.0806 
    115 H115       28.4782   30.0282    3.0220 H         1 UNK         0.3010 
    116 H116       30.1144   29.1514    4.1807 H         1 UNK         0.0829 
    117 H117       30.9916   32.0256    4.7983 H         1 UNK         0.0813 
    118 H118       29.9230   31.0100    5.7574 H         1 UNK         0.0813 
    119 H119       31.6194   30.5944    5.5903 H         1 UNK         0.0813 
    120 H120       31.8472   31.8779    2.7001 H         1 UNK         0.3038 
    121 H121       33.6543   32.1486    1.4838 H         1 UNK         0.0769 
    122 H122       32.8959   29.4799    0.1838 H         1 UNK         0.0811 
    123 H123       33.9706   30.6890   -0.4997 H         1 UNK         0.0811 
    124 H124       32.2729   31.0679   -0.2577 H         1 UNK         0.0811 
    125 H125       33.7828   28.6803    2.3464 H         1 UNK         0.3204 
    126 H126       36.7136   28.6422    2.3285 H         1 UNK         0.0748 
    127 H127       36.4169   26.2322    2.8398 H         1 UNK         0.0771 
    128 H128       34.6948   26.4655    3.0948 H         1 UNK         0.0771 
    129 H129       35.3922   26.7007    1.4928 H         1 UNK         0.0771 
    130 H130       34.1662   28.8043    4.7963 H         1 UNK         0.2980 
    131 H131       35.8931   28.1667    7.0203 H         1 UNK         0.0545 
    132 H132       37.0072   31.2938    8.2815 H         1 UNK         0.3459 
    133 H133       36.8707   29.5786    8.5669 H         1 UNK         0.3459 
    134 H134       33.9863   28.8264    8.4548 H         1 UNK         0.0616 
    135 H135       33.1288   29.4779    7.0870 H         1 UNK         0.0616 
    136 H136       30.9751   28.0000    6.6505 H         1 UNK         0.0634 
    137 H137       32.0547   28.1704    5.2852 H         1 UNK         0.0634 
@<TRIPOS>BOND
     1    1    2 1    
     2    1   72 1    
     3    1   73 1    
     4    1   74 1    
     5    2    3 2    
     6    2    4 am   BACKBONE|DICT|INTERRES
     7    4    5 1    
     8    4   75 1    
     9    5    6 1    
    10    5   35 1    
    11    5   76 1    
    12    6    7 1    
    13    6   77 1    
    14    6   78 1    
    15    7    8 1    
    16    8    9 1    
    17    8   79 1    
    18    8   80 1    
    19    9   10 ar   
    20    9   14 ar   
    21   10   11 ar   
    22   10   81 1    
    23   11   12 ar   
    24   11   71 1    
    25   12   13 ar   
    26   12   82 1    
    27   13   14 ar   
    28   13   15 1    
    29   14   83 1    
    30   15   16 1    
    31   15   84 1    
    32   15   85 1    
    33   16   17 1    
    34   17   18 1    
    35   17   86 1    
    36   17   87 1    
    37   18   19 1    
    38   18   37 1    
    39   18   88 1    
    40   19   20 am   BACKBONE|DICT|INTERRES
    41   19   89 1    
    42   20   21 2    
    43   20   22 1    
    44   22   23 1    
    45   22   24 1    
    46   22   90 1    
    47   23   91 1    
    48   23   92 1    
    49   23   93 1    
    50   24   25 am   BACKBONE|DICT|INTERRES
    51   24   94 1    
    52   25   26 2    
    53   25   27 1    
    54   27   28 1    
    55   27   29 1    
    56   27   95 1    
    57   28   96 1    
    58   28   97 1    
    59   28   98 1    
    60   29   30 am   BACKBONE|DICT|INTERRES
    61   29   99 1    
    62   30   31 2    
    63   30   32 1    
    64   32   33 1    
    65   32   34 1    
    66   32  100 1    
    67   33  101 1    
    68   33  102 1    
    69   33  103 1    
    70   34   35 am   BACKBONE|DICT|INTERRES
    71   34  104 1    
    72   35   36 2    
    73   37   38 2    
    74   37   39 am   BACKBONE|DICT|INTERRES
    75   39   40 1    
    76   39  105 1    
    77   40   41 1    
    78   40   42 1    
    79   40  106 1    
    80   41  107 1    
    81   41  108 1    
    82   41  109 1    
    83   42   43 2    
    84   42   44 am   BACKBONE|DICT|INTERRES
    85   44   45 1    
    86   44  110 1    
    87   45   46 1    
    88   45   47 1    
    89   45  111 1    
    90   46  112 1    
    91   46  113 1    
    92   46  114 1    
    93   47   48 2    
    94   47   49 am   BACKBONE|DICT|INTERRES
    95   49   50 1    
    96   49  115 1    
    97   50   51 1    
    98   50   52 1    
    99   50  116 1    
   100   51  117 1    
   101   51  118 1    
   102   51  119 1    
   103   52   53 2    
   104   52   54 am   BACKBONE|DICT|INTERRES
   105   54   55 1    
   106   54  120 1    
   107   55   56 1    
   108   55   57 1    
   109   55  121 1    
   110   56  122 1    
   111   56  123 1    
   112   56  124 1    
   113   57   58 2    
   114   57   59 am   BACKBONE|DICT|INTERRES
   115   59   60 1    
   116   59  125 1    
   117   60   61 1    
   118   60   62 1    
   119   60  126 1    
   120   61  127 1    
   121   61  128 1    
   122   61  129 1    
   123   62   63 2    
   124   62   64 am   BACKBONE|DICT|INTERRES
   125   64   65 1    
   126   64  130 1    
   127   65   66 1    
   128   65   69 1    
   129   65  131 1    
   130   66   67 am   BACKBONE|DICT|INTERRES
   131   66   68 2    
   132   67  132 1    
   133   67  133 1    
   134   69   70 1    
   135   69  134 1    
   136   69  135 1    
   137   70   71 1    
   138   71  136 1    
   139   71  137 1    
@<TRIPOS>SUBSTRUCTURE
     1 UNK         1 GROUP             0       ****    0 ROOT    
