@<TRIPOS>MOLECULE
3R136
137   139    1
SMALL
USER_CHARGES


@<TRIPOS>ATOM
      1 CA         30.9251   22.5977   -4.5429 C.3       0 UNK        -0.1979 
      2 C          29.9695   23.1590   -3.5010 C.2       0 UNK         0.4864 
      3 O          28.9277   23.7125   -3.8573 O.2       0 UNK        -0.5359 
      4 N          30.2999   23.0088   -2.2109 N.am      1 UNK        -0.4318 
      5 CA         29.5216   23.4928   -1.0629 C.3       1 UNK         0.0824 
      6 C6         30.4397   23.7214    0.1685 C.3       12 UNK        -0.0944 
      7 S7         29.8180   25.0184    1.2902 S.3       12 UNK        -0.2672 
      8 C8         29.4817   24.0576    2.8028 C.3       12 UNK         0.0333 
      9 C9         29.2125   24.9903    3.9721 C.ar      12 UNK        -0.0807 
     10 C10        30.2396   25.3236    4.8582 C.ar      12 UNK        -0.0894 
     11 C11        30.0195   26.2467    5.8840 C.ar      12 UNK        -0.0804 
     12 C12        28.7659   26.8548    6.0053 C.ar      12 UNK        -0.0824 
     13 C13        27.7247   26.5242    5.1300 C.ar      12 UNK        -0.0762 
     14 C14        27.9463   25.5547    4.1440 C.ar      12 UNK        -0.0782 
     15 C15        26.3723   27.2222    5.2712 C.3       12 UNK         0.0230 
     16 S16        25.5307   27.5768    3.6859 S.3       12 UNK        -0.2608 
     17 C17        26.6845   28.7280    2.8545 C.3       12 UNK        -0.0989 
     18 CA         27.5334   28.0319    1.7534 C.3       5 UNK         0.0716 
     19 N          26.7450   27.2805    0.7689 N.am      5 UNK        -0.4135 
     20 C          25.8962   27.7856   -0.1381 C.2       4 UNK         0.5031 
     21 O          25.6623   28.9867   -0.2758 O.2       4 UNK        -0.5229 
     22 CA         25.2073   26.7755   -1.0727 C.3       4 UNK         0.0329 
     23 CB         25.9518   26.7013   -2.4168 C.3       4 UNK        -0.2001 
     24 N          25.1247   25.4278   -0.5035 N.am      4 UNK        -0.4303 
     25 C          24.2630   25.0399    0.4481 C.2       3 UNK         0.5044 
     26 O          23.4173   25.7878    0.9398 O.2       3 UNK        -0.5152 
     27 CA         24.3776   23.5855    0.9577 C.3       3 UNK         0.0319 
     28 CB         22.9964   22.9304    1.1698 C.3       3 UNK        -0.2001 
     29 N          25.2560   22.7243    0.1493 N.am      3 UNK        -0.4354 
     30 C          25.0841   22.3262   -1.1204 C.2       2 UNK         0.4964 
     31 O          24.1022   22.6143   -1.8058 O.2       2 UNK        -0.5047 
     32 CA         26.2505   21.5314   -1.7378 C.3       2 UNK         0.0288 
     33 CB         25.9366   21.0158   -3.1550 C.3       2 UNK        -0.2113 
     34 N          27.4694   22.3437   -1.7933 N.am      2 UNK        -0.4145 
     35 C          28.3002   22.5858   -0.7708 C.2       1 UNK         0.5006 
     36 O          28.1155   22.1230    0.3567 O.2       1 UNK        -0.5103 
     37 C          28.5759   28.9563    1.0918 C.2       5 UNK         0.5055 
     38 O          28.8763   30.0288    1.6153 O.2       5 UNK        -0.5220 
     39 N          29.1550   28.4979   -0.0290 N.am      6 UNK        -0.4450 
     40 CA         30.2390   29.1706   -0.7535 C.3       6 UNK         0.0367 
     41 CB         30.4990   28.4260   -2.0730 C.3       6 UNK        -0.1929 
     42 C          31.5381   29.2829    0.0666 C.2       6 UNK         0.5070 
     43 O          32.3143   30.2148   -0.1430 O.2       6 UNK        -0.5237 
     44 N          31.7345   28.3488    1.0070 N.am      7 UNK        -0.4739 
     45 CA         32.8531   28.3185    1.9486 C.3       7 UNK         0.0276 
     46 CB         32.9217   26.9217    2.5849 C.3       7 UNK        -0.1927 
     47 C          32.7883   29.4016    3.0419 C.2       7 UNK         0.5013 
     48 O          33.7922   29.5973    3.7286 O.2       7 UNK        -0.5193 
     49 N          31.6464   30.0945    3.1985 N.am      8 UNK        -0.4253 
     50 CA         31.3955   31.1015    4.2433 C.3       8 UNK         0.0242 
     51 CB         29.9128   31.5047    4.2249 C.3       8 UNK        -0.2000 
     52 C          32.3014   32.3480    4.1936 C.2       8 UNK         0.4948 
     53 O          32.2963   33.1334    5.1416 O.2       8 UNK        -0.5275 
     54 N          33.0850   32.5039    3.1181 N.am      9 UNK        -0.4246 
     55 CA         34.2072   33.4403    3.0427 C.3       9 UNK         0.0261 
     56 CB         34.6752   33.5442    1.5820 C.3       9 UNK        -0.1959 
     57 C          35.3843   33.0431    3.9592 C.2       9 UNK         0.5033 
     58 O          36.1681   33.9193    4.3279 O.2       9 UNK        -0.5390 
     59 N          35.4960   31.7503    4.2998 N.am      10 UNK        -0.4215 
     60 CA         36.5293   31.1859    5.1647 C.3       10 UNK         0.0240 
     61 CB         37.2561   30.0511    4.4215 C.3       10 UNK        -0.1982 
     62 C          35.9339   30.6809    6.4872 C.2       10 UNK         0.4970 
     63 O          36.4262   31.0768    7.5450 O.2       10 UNK        -0.4916 
     64 N          34.9160   29.8090    6.4207 N.am      11 UNK        -0.4279 
     65 CA         34.2682   29.2193    7.6056 C.3       11 UNK         0.1003 
     66 C          33.2994   30.1904    8.3380 C.2       11 UNK         0.5709 
     67 N          32.9317   29.8795    9.5744 N.am      11 UNK        -0.7358 
     68 O          32.8660   31.2078    7.8025 O.2       11 UNK        -0.4999 
     69 C69        33.6347   27.8331    7.3034 C.3       12 UNK        -0.0954 
     70 S70        32.2247   27.8700    6.1492 S.3       12 UNK        -0.2268 
     71 C71        31.1447   26.5902    6.8479 C.3       12 UNK         0.0203 
     72 H72        31.2672   23.3934   -5.2040 H         1 UNK         0.0888 
     73 H73        31.8005   22.1358   -4.0868 H         1 UNK         0.0888 
     74 H74        30.4201   21.8450   -5.1477 H         1 UNK         0.0888 
     75 H75        31.1483   22.5112   -1.9795 H         1 UNK         0.3017 
     76 H76        29.1137   24.4653   -1.3481 H         1 UNK         0.0873 
     77 H77        30.6294   22.7922    0.7092 H         1 UNK         0.0745 
     78 H78        31.4212   24.0667   -0.1612 H         1 UNK         0.0745 
     79 H79        28.6259   23.4011    2.6416 H         1 UNK         0.0705 
     80 H80        30.3332   23.4128    3.0254 H         1 UNK         0.0705 
     81 H81        31.2192   24.8810    4.7385 H         1 UNK         0.1334 
     82 H82        28.6036   27.5888    6.7830 H         1 UNK         0.1417 
     83 H83        27.1494   25.2825    3.4661 H         1 UNK         0.1562 
     84 H84        26.4827   28.1605    5.8172 H         1 UNK         0.0748 
     85 H85        25.7205   26.5899    5.8752 H         1 UNK         0.0748 
     86 H86        27.3304   29.1833    3.6073 H         1 UNK         0.0940 
     87 H87        26.1024   29.5443    2.4235 H         1 UNK         0.0940 
     88 H88        28.1511   27.2915    2.2529 H         1 UNK         0.0703 
     89 H89        26.8504   26.2781    0.8012 H         1 UNK         0.3081 
     90 H90        24.1934   27.1360   -1.2598 H         1 UNK         0.0719 
     91 H91        26.9717   26.3323   -2.2998 H         1 UNK         0.0809 
     92 H92        25.4370   26.0448   -3.1189 H         1 UNK         0.0809 
     93 H93        26.0134   27.6856   -2.8835 H         1 UNK         0.0809 
     94 H94        25.7499   24.7324   -0.8810 H         1 UNK         0.2990 
     95 H95        24.8562   23.6565    1.9356 H         1 UNK         0.0690 
     96 H96        23.0934   21.9128    1.5480 H         1 UNK         0.0788 
     97 H97        22.4179   22.8925    0.2464 H         1 UNK         0.0788 
     98 H98        22.4058   23.4888    1.8972 H         1 UNK         0.0788 
     99 H99        26.1311   22.4544    0.5905 H         1 UNK         0.2993 
    100 H100       26.4284   20.6635   -1.0986 H         1 UNK         0.0949 
    101 H101       25.0419   20.3915   -3.1551 H         1 UNK         0.0767 
    102 H102       25.7652   21.8348   -3.8550 H         1 UNK         0.0767 
    103 H103       26.7539   20.4086   -3.5449 H         1 UNK         0.0767 
    104 H104       27.6981   22.7745   -2.6857 H         1 UNK         0.3013 
    105 H105       28.8569   27.6037   -0.3887 H         1 UNK         0.3121 
    106 H106       29.9084   30.1851   -0.9862 H         1 UNK         0.0774 
    107 H107       30.8151   27.3960   -1.9016 H         1 UNK         0.0815 
    108 H108       31.2858   28.9165   -2.6480 H         1 UNK         0.0815 
    109 H109       29.6077   28.4051   -2.7004 H         1 UNK         0.0815 
    110 H110       31.0487   27.6127    1.0994 H         1 UNK         0.2987 
    111 H111       33.7757   28.4858    1.3886 H         1 UNK         0.0949 
    112 H112       32.0140   26.6957    3.1439 H         1 UNK         0.0806 
    113 H113       33.0543   26.1448    1.8317 H         1 UNK         0.0806 
    114 H114       33.7588   26.8462    3.2806 H         1 UNK         0.0806 
    115 H115       30.8719   29.8977    2.5759 H         1 UNK         0.3010 
    116 H116       31.5962   30.6224    5.2033 H         1 UNK         0.0829 
    117 H117       29.2650   30.6377    4.3538 H         1 UNK         0.0813 
    118 H118       29.6849   32.1988    5.0349 H         1 UNK         0.0813 
    119 H119       29.6414   31.9951    3.2895 H         1 UNK         0.0813 
    120 H120       32.9986   31.8326    2.3679 H         1 UNK         0.3038 
    121 H121       33.8557   34.4236    3.3626 H         1 UNK         0.0769 
    122 H122       35.0280   32.5847    1.2012 H         1 UNK         0.0811 
    123 H123       35.4968   34.2554    1.4855 H         1 UNK         0.0811 
    124 H124       33.8717   33.8893    0.9310 H         1 UNK         0.0811 
    125 H125       34.7882   31.0926    3.9773 H         1 UNK         0.3204 
    126 H126       37.2722   31.9473    5.4119 H         1 UNK         0.0748 
    127 H127       38.0232   29.5993    5.0519 H         1 UNK         0.0771 
    128 H128       36.5725   29.2572    4.1174 H         1 UNK         0.0771 
    129 H129       37.7520   30.4234    3.5250 H         1 UNK         0.0771 
    130 H130       34.5172   29.5639    5.5195 H         1 UNK         0.2980 
    131 H131       35.0692   29.0229    8.3215 H         1 UNK         0.0545 
    132 H132       32.2993   30.4931   10.0636 H         1 UNK         0.3459 
    133 H133       33.2746   29.0480   10.0291 H         1 UNK         0.3459 
    134 H134       34.3911   27.1698    6.8815 H         1 UNK         0.0616 
    135 H135       33.3194   27.3598    8.2347 H         1 UNK         0.0616 
    136 H136       31.7322   25.6957    7.0608 H         1 UNK         0.0634 
    137 H137       30.7437   26.9360    7.8018 H         1 UNK         0.0634 
@<TRIPOS>BOND
     1    1    2 1    
     2    1   72 1    
     3    1   73 1    
     4    1   74 1    
     5    2    3 2    
     6    2    4 am   BACKBONE|DICT|INTERRES
     7    4    5 1    
     8    4   75 1    
     9    5    6 1    
    10    5   35 1    
    11    5   76 1    
    12    6    7 1    
    13    6   77 1    
    14    6   78 1    
    15    7    8 1    
    16    8    9 1    
    17    8   79 1    
    18    8   80 1    
    19    9   10 ar   
    20    9   14 ar   
    21   10   11 ar   
    22   10   81 1    
    23   11   12 ar   
    24   11   71 1    
    25   12   13 ar   
    26   12   82 1    
    27   13   14 ar   
    28   13   15 1    
    29   14   83 1    
    30   15   16 1    
    31   15   84 1    
    32   15   85 1    
    33   16   17 1    
    34   17   18 1    
    35   17   86 1    
    36   17   87 1    
    37   18   19 1    
    38   18   37 1    
    39   18   88 1    
    40   19   20 am   BACKBONE|DICT|INTERRES
    41   19   89 1    
    42   20   21 2    
    43   20   22 1    
    44   22   23 1    
    45   22   24 1    
    46   22   90 1    
    47   23   91 1    
    48   23   92 1    
    49   23   93 1    
    50   24   25 am   BACKBONE|DICT|INTERRES
    51   24   94 1    
    52   25   26 2    
    53   25   27 1    
    54   27   28 1    
    55   27   29 1    
    56   27   95 1    
    57   28   96 1    
    58   28   97 1    
    59   28   98 1    
    60   29   30 am   BACKBONE|DICT|INTERRES
    61   29   99 1    
    62   30   31 2    
    63   30   32 1    
    64   32   33 1    
    65   32   34 1    
    66   32  100 1    
    67   33  101 1    
    68   33  102 1    
    69   33  103 1    
    70   34   35 am   BACKBONE|DICT|INTERRES
    71   34  104 1    
    72   35   36 2    
    73   37   38 2    
    74   37   39 am   BACKBONE|DICT|INTERRES
    75   39   40 1    
    76   39  105 1    
    77   40   41 1    
    78   40   42 1    
    79   40  106 1    
    80   41  107 1    
    81   41  108 1    
    82   41  109 1    
    83   42   43 2    
    84   42   44 am   BACKBONE|DICT|INTERRES
    85   44   45 1    
    86   44  110 1    
    87   45   46 1    
    88   45   47 1    
    89   45  111 1    
    90   46  112 1    
    91   46  113 1    
    92   46  114 1    
    93   47   48 2    
    94   47   49 am   BACKBONE|DICT|INTERRES
    95   49   50 1    
    96   49  115 1    
    97   50   51 1    
    98   50   52 1    
    99   50  116 1    
   100   51  117 1    
   101   51  118 1    
   102   51  119 1    
   103   52   53 2    
   104   52   54 am   BACKBONE|DICT|INTERRES
   105   54   55 1    
   106   54  120 1    
   107   55   56 1    
   108   55   57 1    
   109   55  121 1    
   110   56  122 1    
   111   56  123 1    
   112   56  124 1    
   113   57   58 2    
   114   57   59 am   BACKBONE|DICT|INTERRES
   115   59   60 1    
   116   59  125 1    
   117   60   61 1    
   118   60   62 1    
   119   60  126 1    
   120   61  127 1    
   121   61  128 1    
   122   61  129 1    
   123   62   63 2    
   124   62   64 am   BACKBONE|DICT|INTERRES
   125   64   65 1    
   126   64  130 1    
   127   65   66 1    
   128   65   69 1    
   129   65  131 1    
   130   66   67 am   BACKBONE|DICT|INTERRES
   131   66   68 2    
   132   67  132 1    
   133   67  133 1    
   134   69   70 1    
   135   69  134 1    
   136   69  135 1    
   137   70   71 1    
   138   71  136 1    
   139   71  137 1    
@<TRIPOS>SUBSTRUCTURE
     1 UNK         1 GROUP             0       ****    0 ROOT    
