@<TRIPOS>MOLECULE
3R136
137   139    1
SMALL
USER_CHARGES


@<TRIPOS>ATOM
      1 CA         29.5284   19.2335   -3.9874 C.3       0 UNK        -0.1979 
      2 C          29.4988   20.6507   -3.4338 C.2       0 UNK         0.4864 
      3 O          29.3985   21.6063   -4.2053 O.2       0 UNK        -0.5359 
      4 N          29.5935   20.7940   -2.1053 N.am      1 UNK        -0.4318 
      5 CA         29.5132   22.0737   -1.3955 C.3       1 UNK         0.0824 
      6 C6         30.0712   21.9416    0.0433 C.3       12 UNK        -0.0944 
      7 S7         30.4512   23.5585    0.7913 S.3       12 UNK        -0.2672 
      8 C8         30.7193   23.0737    2.5237 C.3       12 UNK         0.0333 
      9 C9         30.8639   24.3003    3.4103 C.ar      12 UNK        -0.0807 
     10 C10        31.9807   25.1298    3.2756 C.ar      12 UNK        -0.0894 
     11 C11        32.1010   26.2890    4.0452 C.ar      12 UNK        -0.0804 
     12 C12        31.1069   26.6020    4.9757 C.ar      12 UNK        -0.0824 
     13 C13        29.9954   25.7698    5.1364 C.ar      12 UNK        -0.0762 
     14 C14        29.8768   24.6206    4.3482 C.ar      12 UNK        -0.0782 
     15 C15        28.9270   26.1127    6.1658 C.3       12 UNK         0.0230 
     16 S16        27.3581   26.6315    5.3992 S.3       12 UNK        -0.2608 
     17 C17        27.8420   28.1502    4.5078 C.3       12 UNK        -0.0989 
     18 CA         27.7234   27.9813    2.9665 C.3       5 UNK         0.0716 
     19 N          26.3710   27.6295    2.5084 N.am      5 UNK        -0.4135 
     20 C          25.2620   28.3786    2.6380 C.2       4 UNK         0.5031 
     21 O          25.2379   29.4732    3.2023 O.2       4 UNK        -0.5229 
     22 CA         23.9519   27.8544    2.0130 C.3       4 UNK         0.0329 
     23 CB         23.5357   28.7400    0.8254 C.3       4 UNK        -0.2001 
     24 N          24.0250   26.4668    1.5551 N.am      4 UNK        -0.4303 
     25 C          24.0485   25.3860    2.3468 C.2       3 UNK         0.5044 
     26 O          23.8951   25.4280    3.5674 O.2       3 UNK        -0.5152 
     27 CA         24.3140   24.0294    1.6637 C.3       3 UNK         0.0319 
     28 CB         23.0070   23.2310    1.5297 C.3       3 UNK        -0.2001 
     29 N          24.9569   24.1233    0.3444 N.am      3 UNK        -0.4354 
     30 C          26.1678   24.6479    0.1082 C.2       2 UNK         0.4964 
     31 O          26.8729   25.1684    0.9755 O.2       2 UNK        -0.5047 
     32 CA         26.6507   24.6468   -1.3494 C.3       2 UNK         0.0288 
     33 CB         26.8186   26.0869   -1.8657 C.3       2 UNK        -0.2113 
     34 N          27.9264   23.9436   -1.4586 N.am      2 UNK        -0.4145 
     35 C          28.0656   22.6127   -1.3992 C.2       1 UNK         0.5006 
     36 O          27.1160   21.8267   -1.3241 O.2       1 UNK        -0.5103 
     37 C          28.2716   29.1917    2.1788 C.2       5 UNK         0.5055 
     38 O          28.8403   30.1130    2.7640 O.2       5 UNK        -0.5220 
     39 N          28.0650   29.1764    0.8536 N.am      6 UNK        -0.4450 
     40 CA         28.4947   30.2338   -0.0669 C.3       6 UNK         0.0367 
     41 CB         27.6878   30.1182   -1.3708 C.3       6 UNK        -0.1929 
     42 C          30.0057   30.2093   -0.3650 C.2       6 UNK         0.5070 
     43 O          30.5531   31.2275   -0.7901 O.2       6 UNK        -0.5237 
     44 N          30.6471   29.0511   -0.1632 N.am      7 UNK        -0.4739 
     45 CA         32.0826   28.8411   -0.3507 C.3       7 UNK         0.0276 
     46 CB         32.3597   27.3279   -0.3365 C.3       7 UNK        -0.1927 
     47 C          32.9156   29.5385    0.7377 C.2       7 UNK         0.5013 
     48 O          32.4412   29.6756    1.8665 O.2       7 UNK        -0.5193 
     49 N          34.1509   29.9216    0.3764 N.am      8 UNK        -0.4253 
     50 CA         35.2556   30.3929    1.2309 C.3       8 UNK         0.0242 
     51 CB         36.0412   29.1781    1.7642 C.3       8 UNK        -0.2000 
     52 C          34.8592   31.3717    2.3563 C.2       8 UNK         0.4948 
     53 O          35.2773   31.1935    3.5027 O.2       8 UNK        -0.5275 
     54 N          34.0202   32.3620    2.0152 N.am      9 UNK        -0.4246 
     55 CA         33.4556   33.3854    2.9082 C.3       9 UNK         0.0261 
     56 CB         34.5465   34.4001    3.3132 C.3       9 UNK        -0.1959 
     57 C          32.7005   32.8079    4.1276 C.2       9 UNK         0.5033 
     58 O          32.7143   33.4197    5.1972 O.2       9 UNK        -0.5390 
     59 N          32.0692   31.6386    3.9431 N.am      10 UNK        -0.4215 
     60 CA         31.3524   30.8384    4.9405 C.3       10 UNK         0.0240 
     61 CB         30.1748   31.6142    5.5703 C.3       10 UNK        -0.1982 
     62 C          32.2606   30.1639    5.9867 C.2       10 UNK         0.4970 
     63 O          31.7443   29.7116    7.0103 O.2       10 UNK        -0.4916 
     64 N          33.5636   30.0300    5.6893 N.am      11 UNK        -0.4279 
     65 CA         34.5548   29.2728    6.4729 C.3       11 UNK         0.1003 
     66 C          34.8100   29.8712    7.8932 C.2       11 UNK         0.5709 
     67 N          35.5031   29.1577    8.7716 N.am      11 UNK        -0.7358 
     68 O          34.4445   31.0055    8.1981 O.2       11 UNK        -0.4999 
     69 C69        34.2566   27.7353    6.4617 C.3       12 UNK        -0.0954 
     70 S70        34.6986   26.9245    4.8856 S.3       12 UNK        -0.2268 
     71 C71        33.2649   27.2363    3.8082 C.3       12 UNK         0.0203 
     72 H72        30.3643   19.1170   -4.6766 H         1 UNK         0.0888 
     73 H73        29.6339   18.4892   -3.1982 H         1 UNK         0.0888 
     74 H74        28.6069   19.0237   -4.5298 H         1 UNK         0.0888 
     75 H75        29.6401   19.9710   -1.5218 H         1 UNK         0.3017 
     76 H76        30.1422   22.7806   -1.9422 H         1 UNK         0.0873 
     77 H77        30.9994   21.3675    0.0341 H         1 UNK         0.0745 
     78 H78        29.3782   21.3911    0.6831 H         1 UNK         0.0745 
     79 H79        31.6181   22.4595    2.5956 H         1 UNK         0.0705 
     80 H80        29.8867   22.4537    2.8600 H         1 UNK         0.0705 
     81 H81        32.7386   24.8895    2.5422 H         1 UNK         0.1334 
     82 H82        31.1901   27.5006    5.5683 H         1 UNK         0.1417 
     83 H83        29.0078   23.9861    4.4588 H         1 UNK         0.1562 
     84 H84        29.2723   26.8991    6.8393 H         1 UNK         0.0748 
     85 H85        28.7401   25.2385    6.7910 H         1 UNK         0.0748 
     86 H86        28.8620   28.4191    4.7860 H         1 UNK         0.0940 
     87 H87        27.2181   28.9732    4.8591 H         1 UNK         0.0940 
     88 H88        28.3611   27.1407    2.6857 H         1 UNK         0.0703 
     89 H89        26.3054   26.7340    2.0337 H         1 UNK         0.3081 
     90 H90        23.1776   27.9219    2.7802 H         1 UNK         0.0719 
     91 H91        24.2756   28.7169    0.0242 H         1 UNK         0.0809 
     92 H92        22.5786   28.4242    0.4099 H         1 UNK         0.0809 
     93 H93        23.4232   29.7806    1.1334 H         1 UNK         0.0809 
     94 H94        24.1350   26.3231    0.5623 H         1 UNK         0.2990 
     95 H95        24.9896   23.4721    2.3160 H         1 UNK         0.0690 
     96 H96        23.1911   22.2291    1.1411 H         1 UNK         0.0788 
     97 H97        22.2977   23.7258    0.8650 H         1 UNK         0.0788 
     98 H98        22.5187   23.1146    2.4985 H         1 UNK         0.0788 
     99 H99        24.4459   23.7207   -0.4288 H         1 UNK         0.2993 
    100 H100       25.9150   24.1390   -1.9774 H         1 UNK         0.0949 
    101 H101       27.1159   26.0979   -2.9146 H         1 UNK         0.0767 
    102 H102       25.8833   26.6432   -1.7899 H         1 UNK         0.0767 
    103 H103       27.5731   26.6347   -1.3001 H         1 UNK         0.0767 
    104 H104       28.7580   24.5163   -1.4489 H         1 UNK         0.3013 
    105 H105       27.5744   28.3916    0.4518 H         1 UNK         0.3121 
    106 H106       28.2684   31.2002    0.3893 H         1 UNK         0.0774 
    107 H107       27.9513   30.9192   -2.0631 H         1 UNK         0.0815 
    108 H108       27.8757   29.1733   -1.8821 H         1 UNK         0.0815 
    109 H109       26.6164   30.1942   -1.1841 H         1 UNK         0.0815 
    110 H110       30.1258   28.2821    0.2286 H         1 UNK         0.2987 
    111 H111       32.3639   29.2454   -1.3257 H         1 UNK         0.0949 
    112 H112       33.4200   27.1198   -0.4864 H         1 UNK         0.0806 
    113 H113       32.0708   26.8736    0.6127 H         1 UNK         0.0806 
    114 H114       31.8159   26.8159   -1.1306 H         1 UNK         0.0806 
    115 H115       34.4025   29.7936   -0.5942 H         1 UNK         0.3010 
    116 H116       35.9275   30.9526    0.5783 H         1 UNK         0.0829 
    117 H117       36.3608   28.5210    0.9556 H         1 UNK         0.0813 
    118 H118       36.9393   29.4928    2.2974 H         1 UNK         0.0813 
    119 H119       35.4428   28.5903    2.4578 H         1 UNK         0.0813 
    120 H120       33.7037   32.3957    1.0556 H         1 UNK         0.3038 
    121 H121       32.7077   33.9217    2.3222 H         1 UNK         0.0769 
    122 H122       34.1189   35.2381    3.8652 H         1 UNK         0.0811 
    123 H123       35.0487   34.8141    2.4390 H         1 UNK         0.0811 
    124 H124       35.3042   33.9432    3.9509 H         1 UNK         0.0811 
    125 H125       32.1687   31.1758    3.0409 H         1 UNK         0.3204 
    126 H126       30.9227   30.0116    4.3742 H         1 UNK         0.0748 
    127 H127       29.5381   30.9487    6.1544 H         1 UNK         0.0771 
    128 H128       30.5170   32.4043    6.2387 H         1 UNK         0.0771 
    129 H129       29.5455   32.0664    4.8036 H         1 UNK         0.0771 
    130 H130       33.9293   30.4748    4.8539 H         1 UNK         0.2980 
    131 H131       35.4997   29.4321    5.9525 H         1 UNK         0.0545 
    132 H132       35.6896   29.5512    9.6807 H         1 UNK         0.3459 
    133 H133       35.8481   28.2390    8.5428 H         1 UNK         0.3459 
    134 H134       34.8460   27.2132    7.2150 H         1 UNK         0.0616 
    135 H135       33.2199   27.5201    6.7167 H         1 UNK         0.0616 
    136 H136       33.5942   27.1436    2.7727 H         1 UNK         0.0634 
    137 H137       32.9308   28.2635    3.9143 H         1 UNK         0.0634 
@<TRIPOS>BOND
     1    1    2 1    
     2    1   72 1    
     3    1   73 1    
     4    1   74 1    
     5    2    3 2    
     6    2    4 am   BACKBONE|DICT|INTERRES
     7    4    5 1    
     8    4   75 1    
     9    5    6 1    
    10    5   35 1    
    11    5   76 1    
    12    6    7 1    
    13    6   77 1    
    14    6   78 1    
    15    7    8 1    
    16    8    9 1    
    17    8   79 1    
    18    8   80 1    
    19    9   10 ar   
    20    9   14 ar   
    21   10   11 ar   
    22   10   81 1    
    23   11   12 ar   
    24   11   71 1    
    25   12   13 ar   
    26   12   82 1    
    27   13   14 ar   
    28   13   15 1    
    29   14   83 1    
    30   15   16 1    
    31   15   84 1    
    32   15   85 1    
    33   16   17 1    
    34   17   18 1    
    35   17   86 1    
    36   17   87 1    
    37   18   19 1    
    38   18   37 1    
    39   18   88 1    
    40   19   20 am   BACKBONE|DICT|INTERRES
    41   19   89 1    
    42   20   21 2    
    43   20   22 1    
    44   22   23 1    
    45   22   24 1    
    46   22   90 1    
    47   23   91 1    
    48   23   92 1    
    49   23   93 1    
    50   24   25 am   BACKBONE|DICT|INTERRES
    51   24   94 1    
    52   25   26 2    
    53   25   27 1    
    54   27   28 1    
    55   27   29 1    
    56   27   95 1    
    57   28   96 1    
    58   28   97 1    
    59   28   98 1    
    60   29   30 am   BACKBONE|DICT|INTERRES
    61   29   99 1    
    62   30   31 2    
    63   30   32 1    
    64   32   33 1    
    65   32   34 1    
    66   32  100 1    
    67   33  101 1    
    68   33  102 1    
    69   33  103 1    
    70   34   35 am   BACKBONE|DICT|INTERRES
    71   34  104 1    
    72   35   36 2    
    73   37   38 2    
    74   37   39 am   BACKBONE|DICT|INTERRES
    75   39   40 1    
    76   39  105 1    
    77   40   41 1    
    78   40   42 1    
    79   40  106 1    
    80   41  107 1    
    81   41  108 1    
    82   41  109 1    
    83   42   43 2    
    84   42   44 am   BACKBONE|DICT|INTERRES
    85   44   45 1    
    86   44  110 1    
    87   45   46 1    
    88   45   47 1    
    89   45  111 1    
    90   46  112 1    
    91   46  113 1    
    92   46  114 1    
    93   47   48 2    
    94   47   49 am   BACKBONE|DICT|INTERRES
    95   49   50 1    
    96   49  115 1    
    97   50   51 1    
    98   50   52 1    
    99   50  116 1    
   100   51  117 1    
   101   51  118 1    
   102   51  119 1    
   103   52   53 2    
   104   52   54 am   BACKBONE|DICT|INTERRES
   105   54   55 1    
   106   54  120 1    
   107   55   56 1    
   108   55   57 1    
   109   55  121 1    
   110   56  122 1    
   111   56  123 1    
   112   56  124 1    
   113   57   58 2    
   114   57   59 am   BACKBONE|DICT|INTERRES
   115   59   60 1    
   116   59  125 1    
   117   60   61 1    
   118   60   62 1    
   119   60  126 1    
   120   61  127 1    
   121   61  128 1    
   122   61  129 1    
   123   62   63 2    
   124   62   64 am   BACKBONE|DICT|INTERRES
   125   64   65 1    
   126   64  130 1    
   127   65   66 1    
   128   65   69 1    
   129   65  131 1    
   130   66   67 am   BACKBONE|DICT|INTERRES
   131   66   68 2    
   132   67  132 1    
   133   67  133 1    
   134   69   70 1    
   135   69  134 1    
   136   69  135 1    
   137   70   71 1    
   138   71  136 1    
   139   71  137 1    
@<TRIPOS>SUBSTRUCTURE
     1 UNK         1 GROUP             0       ****    0 ROOT    
