@<TRIPOS>MOLECULE
3R136
137   139    1
SMALL
USER_CHARGES


@<TRIPOS>ATOM
      1 CA         26.2616   29.2039    2.0932 C.3       0 UNK        -0.1979 
      2 C          26.5229   27.7763    2.5477 C.2       0 UNK         0.4864 
      3 O          25.5876   27.0706    2.9298 O.2       0 UNK        -0.5359 
      4 N          27.7868   27.3392    2.5043 N.am      1 UNK        -0.4318 
      5 CA         28.2228   25.9763    2.8067 C.3       1 UNK         0.0824 
      6 C6         29.7634   25.8943    2.8506 C.3       12 UNK        -0.0944 
      7 S7         30.3870   24.4524    3.7820 S.3       12 UNK        -0.2672 
      8 C8         30.9840   23.3400    2.4601 C.3       12 UNK         0.0333 
      9 C9         31.8890   24.0396    1.4518 C.ar      12 UNK        -0.0807 
     10 C10        32.9987   24.7760    1.8795 C.ar      12 UNK        -0.0894 
     11 C11        33.7644   25.5063    0.9654 C.ar      12 UNK        -0.0804 
     12 C12        33.4443   25.4514   -0.3943 C.ar      12 UNK        -0.0824 
     13 C13        32.3575   24.6927   -0.8379 C.ar      12 UNK        -0.0762 
     14 C14        31.5813   23.9916    0.0891 C.ar      12 UNK        -0.0782 
     15 C15        32.0105   24.6500   -2.3178 C.3       12 UNK         0.0230 
     16 S16        31.2200   26.1938   -2.8644 S.3       12 UNK        -0.2608 
     17 C17        29.6433   26.1314   -1.9471 C.3       12 UNK        -0.0989 
     18 CA         28.7172   27.3305   -2.3017 C.3       5 UNK         0.0716 
     19 N          27.2955   27.0048   -2.2108 N.am      5 UNK        -0.4135 
     20 C          26.6324   26.2260   -3.0714 C.2       4 UNK         0.5031 
     21 O          27.1701   25.6627   -4.0270 O.2       4 UNK        -0.5229 
     22 CA         25.1256   26.0433   -2.8292 C.3       4 UNK         0.0329 
     23 CB         24.5204   24.9039   -3.6799 C.3       4 UNK        -0.2001 
     24 N          24.8400   25.8207   -1.4098 N.am      4 UNK        -0.4303 
     25 C          23.6408   26.0066   -0.8394 C.2       3 UNK         0.5044 
     26 O          22.6784   26.4868   -1.4416 O.2       3 UNK        -0.5152 
     27 CA         23.4657   25.6106    0.6431 C.3       3 UNK         0.0319 
     28 CB         22.0957   24.9522    0.9127 C.3       3 UNK        -0.2001 
     29 N          24.5527   24.7942    1.1990 N.am      3 UNK        -0.4354 
     30 C          24.9400   23.5601    0.8300 C.2       2 UNK         0.4964 
     31 O          24.3754   22.9041   -0.0461 O.2       2 UNK        -0.5047 
     32 CA         26.1671   22.9527    1.5509 C.3       2 UNK         0.0288 
     33 CB         27.0560   22.1258    0.5955 C.3       2 UNK        -0.2113 
     34 N          26.9747   23.9322    2.2941 N.am      2 UNK        -0.4145 
     35 C          27.6156   24.9951    1.7849 C.2       1 UNK         0.5006 
     36 O          27.6767   25.2517    0.5794 O.2       1 UNK        -0.5103 
     37 C          28.9968   28.5940   -1.4652 C.2       5 UNK         0.5055 
     38 O          28.0561   29.2946   -1.0780 O.2       5 UNK        -0.5220 
     39 N          30.2863   28.8612   -1.2178 N.am      6 UNK        -0.4450 
     40 CA         30.8164   29.9443   -0.3847 C.3       6 UNK         0.0367 
     41 CB         32.3523   29.8903   -0.4410 C.3       6 UNK        -0.1929 
     42 C          30.3343   29.8716    1.0753 C.2       6 UNK         0.5070 
     43 O          29.8816   28.8184    1.5241 O.2       6 UNK        -0.5237 
     44 N          30.4344   30.9969    1.7933 N.am      7 UNK        -0.4739 
     45 CA         29.9953   31.1394    3.1834 C.3       7 UNK         0.0276 
     46 CB         30.1944   32.5969    3.6315 C.3       7 UNK        -0.1927 
     47 C          30.7299   30.1851    4.1396 C.2       7 UNK         0.5013 
     48 O          31.9612   30.2142    4.2029 O.2       7 UNK        -0.5193 
     49 N          29.9626   29.4083    4.9171 N.am      8 UNK        -0.4253 
     50 CA         30.4751   28.4737    5.9259 C.3       8 UNK         0.0242 
     51 CB         29.3086   27.6691    6.5195 C.3       8 UNK        -0.2000 
     52 C          31.2905   29.1571    7.0385 C.2       8 UNK         0.4948 
     53 O          32.2182   28.5474    7.5671 O.2       8 UNK        -0.5275 
     54 N          30.9698   30.4250    7.3343 N.am      9 UNK        -0.4246 
     55 CA         31.7247   31.2889    8.2444 C.3       9 UNK         0.0261 
     56 CB         30.9110   32.5639    8.5203 C.3       9 UNK        -0.1959 
     57 C          33.1321   31.6512    7.7300 C.2       9 UNK         0.5033 
     58 O          34.0088   31.9260    8.5506 O.2       9 UNK        -0.5390 
     59 N          33.3289   31.6507    6.4029 N.am      10 UNK        -0.4215 
     60 CA         34.6269   31.8694    5.7646 C.3       10 UNK         0.0240 
     61 CB         34.4341   32.5693    4.4079 C.3       10 UNK        -0.1982 
     62 C          35.3828   30.5435    5.5984 C.2       10 UNK         0.4970 
     63 O          36.5776   30.4937    5.8935 O.2       10 UNK        -0.4916 
     64 N          34.6800   29.5008    5.1347 N.am      11 UNK        -0.4279 
     65 CA         35.2298   28.1494    4.9451 C.3       11 UNK         0.1003 
     66 C          35.5993   27.4112    6.2626 C.2       11 UNK         0.5709 
     67 N          34.8987   27.6277    7.3677 N.am      11 UNK        -0.7358 
     68 O          36.5502   26.6331    6.2820 O.2       11 UNK        -0.4999 
     69 C69        34.3067   27.2804    4.0553 C.3       12 UNK        -0.0954 
     70 S70        34.3169   27.8557    2.3233 S.3       12 UNK        -0.2268 
     71 C71        34.9186   26.3771    1.4423 C.3       12 UNK         0.0203 
     72 H72        27.1571   29.6677    1.6794 H         1 UNK         0.0888 
     73 H73        25.9165   29.8091    2.9308 H         1 UNK         0.0888 
     74 H74        25.4925   29.2156    1.3215 H         1 UNK         0.0888 
     75 H75        28.5193   27.9435    2.1261 H         1 UNK         0.3017 
     76 H76        27.8356   25.7393    3.7999 H         1 UNK         0.0873 
     77 H77        30.1611   26.7711    3.3634 H         1 UNK         0.0745 
     78 H78        30.1820   25.9476    1.8450 H         1 UNK         0.0745 
     79 H79        31.5299   22.5120    2.9138 H         1 UNK         0.0705 
     80 H80        30.1169   22.9028    1.9627 H         1 UNK         0.0705 
     81 H81        33.2310   24.8192    2.9336 H         1 UNK         0.1334 
     82 H82        34.0287   26.0132   -1.1103 H         1 UNK         0.1417 
     83 H83        30.7219   23.4285   -0.2496 H         1 UNK         0.1562 
     84 H84        31.3556   23.8066   -2.5427 H         1 UNK         0.0748 
     85 H85        32.9204   24.4933   -2.8989 H         1 UNK         0.0748 
     86 H86        29.8310   26.0810   -0.8723 H         1 UNK         0.0940 
     87 H87        29.1636   25.1850   -2.2006 H         1 UNK         0.0940 
     88 H88        28.8967   27.6208   -3.3394 H         1 UNK         0.0703 
     89 H89        26.8023   27.4952   -1.4759 H         1 UNK         0.3081 
     90 H90        24.6579   26.9816   -3.1347 H         1 UNK         0.0719 
     91 H91        24.9468   23.9368   -3.4107 H         1 UNK         0.0809 
     92 H92        23.4397   24.8378   -3.5553 H         1 UNK         0.0809 
     93 H93        24.7069   25.0619   -4.7429 H         1 UNK         0.0809 
     94 H94        25.5960   25.4422   -0.8515 H         1 UNK         0.2990 
     95 H95        23.4893   26.5487    1.1993 H         1 UNK         0.0690 
     96 H96        21.9771   24.6999    1.9665 H         1 UNK         0.0788 
     97 H97        21.9631   24.0393    0.3312 H         1 UNK         0.0788 
     98 H98        21.2779   25.6243    0.6500 H         1 UNK         0.0788 
     99 H99        25.0889   25.2646    1.9206 H         1 UNK         0.2993 
    100 H100       25.7604   22.2678    2.2966 H         1 UNK         0.0949 
    101 H101       26.4968   21.2985    0.1567 H         1 UNK         0.0767 
    102 H102       27.4397   22.7288   -0.2281 H         1 UNK         0.0767 
    103 H103       27.9079   21.6941    1.1207 H         1 UNK         0.0767 
    104 H104       26.9710   23.8173    3.2988 H         1 UNK         0.3013 
    105 H105       30.9642   28.1969   -1.5677 H         1 UNK         0.3121 
    106 H106       30.4742   30.8898   -0.8100 H         1 UNK         0.0774 
    107 H107       32.7183   30.0160   -1.4601 H         1 UNK         0.0815 
    108 H108       32.7316   28.9396   -0.0634 H         1 UNK         0.0815 
    109 H109       32.8014   30.6802    0.1625 H         1 UNK         0.0815 
    110 H110       30.8495   31.8120    1.3659 H         1 UNK         0.2987 
    111 H111       28.9268   30.9161    3.2128 H         1 UNK         0.0949 
    112 H112       31.2435   32.8933    3.5881 H         1 UNK         0.0806 
    113 H113       29.6254   33.2861    3.0073 H         1 UNK         0.0806 
    114 H114       29.8578   32.7419    4.6590 H         1 UNK         0.0806 
    115 H115       28.9595   29.4498    4.8121 H         1 UNK         0.3010 
    116 H116       31.1442   27.7765    5.4181 H         1 UNK         0.0829 
    117 H117       28.7808   27.1077    5.7486 H         1 UNK         0.0813 
    118 H118       29.6688   26.9458    7.2526 H         1 UNK         0.0813 
    119 H119       28.5862   28.3124    7.0233 H         1 UNK         0.0813 
    120 H120       30.1785   30.8390    6.8641 H         1 UNK         0.3038 
    121 H121       31.8506   30.7518    9.1871 H         1 UNK         0.0769 
    122 H122       30.7361   33.1379    7.6094 H         1 UNK         0.0811 
    123 H123       31.4349   33.2164    9.2204 H         1 UNK         0.0811 
    124 H124       29.9426   32.3298    8.9630 H         1 UNK         0.0811 
    125 H125       32.5776   31.3504    5.7924 H         1 UNK         0.3204 
    126 H126       35.2341   32.5267    6.3911 H         1 UNK         0.0748 
    127 H127       33.9124   33.5194    4.5236 H         1 UNK         0.0771 
    128 H128       35.3973   32.7833    3.9429 H         1 UNK         0.0771 
    129 H129       33.8655   31.9590    3.7058 H         1 UNK         0.0771 
    130 H130       33.7126   29.6375    4.8589 H         1 UNK         0.2980 
    131 H131       36.1741   28.2688    4.4094 H         1 UNK         0.0545 
    132 H132       35.1609   27.1463    8.2123 H         1 UNK         0.3459 
    133 H133       34.0433   28.1764    7.3524 H         1 UNK         0.3459 
    134 H134       34.6202   26.2363    4.0871 H         1 UNK         0.0616 
    135 H135       33.2809   27.2983    4.4256 H         1 UNK         0.0616 
    136 H136       35.5943   25.7972    2.0720 H         1 UNK         0.0634 
    137 H137       35.5153   26.7104    0.5919 H         1 UNK         0.0634 
@<TRIPOS>BOND
     1    1    2 1    
     2    1   72 1    
     3    1   73 1    
     4    1   74 1    
     5    2    3 2    
     6    2    4 am   BACKBONE|DICT|INTERRES
     7    4    5 1    
     8    4   75 1    
     9    5    6 1    
    10    5   35 1    
    11    5   76 1    
    12    6    7 1    
    13    6   77 1    
    14    6   78 1    
    15    7    8 1    
    16    8    9 1    
    17    8   79 1    
    18    8   80 1    
    19    9   10 ar   
    20    9   14 ar   
    21   10   11 ar   
    22   10   81 1    
    23   11   12 ar   
    24   11   71 1    
    25   12   13 ar   
    26   12   82 1    
    27   13   14 ar   
    28   13   15 1    
    29   14   83 1    
    30   15   16 1    
    31   15   84 1    
    32   15   85 1    
    33   16   17 1    
    34   17   18 1    
    35   17   86 1    
    36   17   87 1    
    37   18   19 1    
    38   18   37 1    
    39   18   88 1    
    40   19   20 am   BACKBONE|DICT|INTERRES
    41   19   89 1    
    42   20   21 2    
    43   20   22 1    
    44   22   23 1    
    45   22   24 1    
    46   22   90 1    
    47   23   91 1    
    48   23   92 1    
    49   23   93 1    
    50   24   25 am   BACKBONE|DICT|INTERRES
    51   24   94 1    
    52   25   26 2    
    53   25   27 1    
    54   27   28 1    
    55   27   29 1    
    56   27   95 1    
    57   28   96 1    
    58   28   97 1    
    59   28   98 1    
    60   29   30 am   BACKBONE|DICT|INTERRES
    61   29   99 1    
    62   30   31 2    
    63   30   32 1    
    64   32   33 1    
    65   32   34 1    
    66   32  100 1    
    67   33  101 1    
    68   33  102 1    
    69   33  103 1    
    70   34   35 am   BACKBONE|DICT|INTERRES
    71   34  104 1    
    72   35   36 2    
    73   37   38 2    
    74   37   39 am   BACKBONE|DICT|INTERRES
    75   39   40 1    
    76   39  105 1    
    77   40   41 1    
    78   40   42 1    
    79   40  106 1    
    80   41  107 1    
    81   41  108 1    
    82   41  109 1    
    83   42   43 2    
    84   42   44 am   BACKBONE|DICT|INTERRES
    85   44   45 1    
    86   44  110 1    
    87   45   46 1    
    88   45   47 1    
    89   45  111 1    
    90   46  112 1    
    91   46  113 1    
    92   46  114 1    
    93   47   48 2    
    94   47   49 am   BACKBONE|DICT|INTERRES
    95   49   50 1    
    96   49  115 1    
    97   50   51 1    
    98   50   52 1    
    99   50  116 1    
   100   51  117 1    
   101   51  118 1    
   102   51  119 1    
   103   52   53 2    
   104   52   54 am   BACKBONE|DICT|INTERRES
   105   54   55 1    
   106   54  120 1    
   107   55   56 1    
   108   55   57 1    
   109   55  121 1    
   110   56  122 1    
   111   56  123 1    
   112   56  124 1    
   113   57   58 2    
   114   57   59 am   BACKBONE|DICT|INTERRES
   115   59   60 1    
   116   59  125 1    
   117   60   61 1    
   118   60   62 1    
   119   60  126 1    
   120   61  127 1    
   121   61  128 1    
   122   61  129 1    
   123   62   63 2    
   124   62   64 am   BACKBONE|DICT|INTERRES
   125   64   65 1    
   126   64  130 1    
   127   65   66 1    
   128   65   69 1    
   129   65  131 1    
   130   66   67 am   BACKBONE|DICT|INTERRES
   131   66   68 2    
   132   67  132 1    
   133   67  133 1    
   134   69   70 1    
   135   69  134 1    
   136   69  135 1    
   137   70   71 1    
   138   71  136 1    
   139   71  137 1    
@<TRIPOS>SUBSTRUCTURE
     1 UNK         1 GROUP             0       ****    0 ROOT    
