@<TRIPOS>MOLECULE
3R136
137   139    1
SMALL
USER_CHARGES


@<TRIPOS>ATOM
      1 CA         24.4086   21.2628   -0.5218 C.3       0 UNK        -0.1979 
      2 C          25.7883   21.8686   -0.7269 C.2       0 UNK         0.4864 
      3 O          26.0534   22.9482   -0.1989 O.2       0 UNK        -0.5359 
      4 N          26.6446   21.1899   -1.5055 N.am      1 UNK        -0.4318 
      5 CA         28.0504   21.4709   -1.8565 C.3       1 UNK         0.0824 
      6 C6         29.0560   21.2093   -0.6992 C.3       12 UNK        -0.0944 
      7 S7         29.2190   22.5048    0.5855 S.3       12 UNK        -0.2672 
      8 C8         30.9010   23.1197    0.2389 C.3       12 UNK         0.0333 
      9 C9         31.5088   23.8970    1.4010 C.ar      12 UNK        -0.0807 
     10 C10        32.0914   25.1503    1.1843 C.ar      12 UNK        -0.0894 
     11 C11        32.7380   25.8246    2.2261 C.ar      12 UNK        -0.0804 
     12 C12        32.7831   25.2448    3.4980 C.ar      12 UNK        -0.0824 
     13 C13        32.1706   24.0117    3.7375 C.ar      12 UNK        -0.0762 
     14 C14        31.5538   23.3350    2.6812 C.ar      12 UNK        -0.0782 
     15 C15        32.1710   23.4065    5.1341 C.3       12 UNK         0.0230 
     16 S16        30.4919   23.3392    5.8414 S.3       12 UNK        -0.2608 
     17 C17        30.1427   25.0981    6.1919 C.3       12 UNK        -0.0989 
     18 CA         29.4815   25.8522    5.0063 C.3       5 UNK         0.0716 
     19 N          28.2991   25.1611    4.4766 N.am      5 UNK        -0.4135 
     20 C          27.8453   25.2839    3.2229 C.2       4 UNK         0.5031 
     21 O          28.4114   25.9817    2.3747 O.2       4 UNK        -0.5229 
     22 CA         26.5363   24.5453    2.8719 C.3       4 UNK         0.0329 
     23 CB         25.5018   24.5573    4.0197 C.3       4 UNK        -0.2001 
     24 N          25.9447   25.0543    1.6291 N.am      4 UNK        -0.4303 
     25 C          25.5309   26.3072    1.3750 C.2       3 UNK         0.5044 
     26 O          25.4099   27.1830    2.2343 O.2       3 UNK        -0.5152 
     27 CA         25.2890   26.6452   -0.1053 C.3       3 UNK         0.0319 
     28 CB         25.0737   28.1538   -0.3520 C.3       3 UNK        -0.2001 
     29 N          26.4242   26.1454   -0.8820 N.am      3 UNK        -0.4354 
     30 C          26.4541   25.9446   -2.2046 C.2       2 UNK         0.4964 
     31 O          25.5396   26.2383   -2.9747 O.2       2 UNK        -0.5047 
     32 CA         27.6907   25.2171   -2.7400 C.3       2 UNK         0.0288 
     33 CB         29.0074   25.9470   -2.4073 C.3       2 UNK        -0.2113 
     34 N          27.6792   23.8781   -2.1685 N.am      2 UNK        -0.4145 
     35 C          28.3115   22.7939   -2.6155 C.2       1 UNK         0.5006 
     36 O          29.0596   22.7946   -3.5950 O.2       1 UNK        -0.5103 
     37 C          29.1646   27.3291    5.3428 C.2       5 UNK         0.5055 
     38 O          29.4485   27.7890    6.4497 O.2       5 UNK        -0.5220 
     39 N          28.5659   28.0417    4.3829 N.am      6 UNK        -0.4450 
     40 CA         28.1494   29.4396    4.4759 C.3       6 UNK         0.0367 
     41 CB         26.8059   29.5328    5.2272 C.3       6 UNK        -0.1929 
     42 C          28.0812   30.1006    3.0872 C.2       6 UNK         0.5070 
     43 O          27.4474   31.1476    2.9498 O.2       6 UNK        -0.5237 
     44 N          28.7195   29.4935    2.0744 N.am      7 UNK        -0.4739 
     45 CA         28.7223   29.9769    0.6890 C.3       7 UNK         0.0276 
     46 CB         29.2006   28.8436   -0.2305 C.3       7 UNK        -0.1927 
     47 C          29.5638   31.2484    0.4747 C.2       7 UNK         0.5013 
     48 O          29.3259   31.9748   -0.4911 O.2       7 UNK        -0.5193 
     49 N          30.5165   31.4982    1.3763 N.am      8 UNK        -0.4253 
     50 CA         31.3754   32.6728    1.4359 C.3       8 UNK         0.0242 
     51 CB         32.5736   32.4887    0.4854 C.3       8 UNK        -0.2000 
     52 C          31.8448   32.8273    2.8855 C.2       8 UNK         0.4948 
     53 O          31.7558   31.8699    3.6589 O.2       8 UNK        -0.5275 
     54 N          32.3950   34.0020    3.2230 N.am      9 UNK        -0.4246 
     55 CA         32.9878   34.2916    4.5376 C.3       9 UNK         0.0261 
     56 CB         33.4227   35.7649    4.5926 C.3       9 UNK        -0.1959 
     57 C          34.1665   33.3657    4.8977 C.2       9 UNK         0.5033 
     58 O          34.3675   33.0637    6.0750 O.2       9 UNK        -0.5390 
     59 N          34.8853   32.8897    3.8707 N.am      10 UNK        -0.4215 
     60 CA         35.9494   31.8884    3.9618 C.3       10 UNK         0.0240 
     61 CB         36.6352   31.7651    2.5909 C.3       10 UNK        -0.1982 
     62 C          35.4761   30.5043    4.4480 C.2       10 UNK         0.4970 
     63 O          36.3100   29.7333    4.9250 O.2       10 UNK        -0.4916 
     64 N          34.1736   30.2060    4.3296 N.am      11 UNK        -0.4279 
     65 CA         33.5645   28.9687    4.8383 C.3       11 UNK         0.1003 
     66 C          33.3690   28.9439    6.3823 C.2       11 UNK         0.5709 
     67 N          33.5276   30.0533    7.0972 N.am      11 UNK        -0.7358 
     68 O          33.0878   27.8878    6.9432 O.2       11 UNK        -0.4999 
     69 C69        32.2402   28.6168    4.1091 C.3       12 UNK        -0.0954 
     70 S70        32.3468   28.5872    2.2870 S.3       12 UNK        -0.2268 
     71 C71        33.4270   27.1568    1.9640 C.3       12 UNK         0.0203 
     72 H72        23.6427   21.9423   -0.8945 H         1 UNK         0.0888 
     73 H73        24.2983   20.3093   -1.0378 H         1 UNK         0.0888 
     74 H74        24.2290   21.0967    0.5401 H         1 UNK         0.0888 
     75 H75        26.2987   20.3355   -1.9204 H         1 UNK         0.3017 
     76 H76        28.2632   20.6987   -2.5982 H         1 UNK         0.0873 
     77 H77        28.7868   20.2817   -0.1918 H         1 UNK         0.0745 
     78 H78        30.0392   21.0129   -1.1294 H         1 UNK         0.0745 
     79 H79        30.8677   23.7297   -0.6653 H         1 UNK         0.0705 
     80 H80        31.5619   22.2791    0.0247 H         1 UNK         0.0705 
     81 H81        32.0684   25.5908    0.1969 H         1 UNK         0.1334 
     82 H82        33.2853   25.7595    4.3054 H         1 UNK         0.1417 
     83 H83        31.1007   22.3692    2.8593 H         1 UNK         0.1562 
     84 H84        32.8284   23.9605    5.8061 H         1 UNK         0.0748 
     85 H85        32.5713   22.3931    5.0815 H         1 UNK         0.0748 
     86 H86        31.0719   25.5917    6.4851 H         1 UNK         0.0940 
     87 H87        29.4955   25.1349    7.0702 H         1 UNK         0.0940 
     88 H88        30.2186   25.8922    4.2045 H         1 UNK         0.0703 
     89 H89        27.7912   24.5836    5.1297 H         1 UNK         0.3081 
     90 H90        26.8106   23.5087    2.6699 H         1 UNK         0.0719 
     91 H91        25.8446   23.9727    4.8736 H         1 UNK         0.0809 
     92 H92        24.5554   24.1213    3.6996 H         1 UNK         0.0809 
     93 H93        25.2978   25.5688    4.3733 H         1 UNK         0.0809 
     94 H94        25.9815   24.3907    0.8552 H         1 UNK         0.2990 
     95 H95        24.3908   26.1067   -0.4141 H         1 UNK         0.0690 
     96 H96        24.8661   28.3673   -1.4002 H         1 UNK         0.0788 
     97 H97        25.9488   28.7322   -0.0587 H         1 UNK         0.0788 
     98 H98        24.2264   28.5270    0.2244 H         1 UNK         0.0788 
     99 H99        27.2252   25.8639   -0.3302 H         1 UNK         0.2993 
    100 H100       27.5919   25.1405   -3.8250 H         1 UNK         0.0949 
    101 H101       28.9695   26.9885   -2.7285 H         1 UNK         0.0767 
    102 H102       29.2249   25.9335   -1.3388 H         1 UNK         0.0767 
    103 H103       29.8517   25.4835   -2.9177 H         1 UNK         0.0767 
    104 H104       27.0555   23.7308   -1.3732 H         1 UNK         0.3013 
    105 H105       28.3437   27.5588    3.5151 H         1 UNK         0.3121 
    106 H106       28.9044   29.9920    5.0395 H         1 UNK         0.0774 
    107 H107       26.4893   30.5698    5.3450 H         1 UNK         0.0815 
    108 H108       26.0147   29.0064    4.6914 H         1 UNK         0.0815 
    109 H109       26.8758   29.1054    6.2273 H         1 UNK         0.0815 
    110 H110       29.2553   28.6568    2.2571 H         1 UNK         0.2987 
    111 H111       27.6956   30.2290    0.4171 H         1 UNK         0.0949 
    112 H112       28.5709   27.9613   -0.1213 H         1 UNK         0.0806 
    113 H113       29.1595   29.1463   -1.2776 H         1 UNK         0.0806 
    114 H114       30.2286   28.5509   -0.0138 H         1 UNK         0.0806 
    115 H115       30.6289   30.8703    2.1638 H         1 UNK         0.3010 
    116 H116       30.8017   33.5587    1.1554 H         1 UNK         0.0829 
    117 H117       32.2448   32.3587   -0.5458 H         1 UNK         0.0813 
    118 H118       33.2331   33.3569    0.5038 H         1 UNK         0.0813 
    119 H119       33.1696   31.6156    0.7560 H         1 UNK         0.0813 
    120 H120       32.4298   34.7419    2.5355 H         1 UNK         0.3038 
    121 H121       32.2120   34.1348    5.2901 H         1 UNK         0.0769 
    122 H122       34.1809   35.9923    3.8421 H         1 UNK         0.0811 
    123 H123       33.8463   36.0098    5.5678 H         1 UNK         0.0811 
    124 H124       32.5780   36.4350    4.4321 H         1 UNK         0.0811 
    125 H125       34.6429   33.2055    2.9435 H         1 UNK         0.3204 
    126 H126       36.6840   32.2510    4.6838 H         1 UNK         0.0748 
    127 H127       37.4589   31.0506    2.6287 H         1 UNK         0.0771 
    128 H128       35.9416   31.4214    1.8220 H         1 UNK         0.0771 
    129 H129       37.0525   32.7188    2.2671 H         1 UNK         0.0771 
    130 H130       33.5232   30.8896    3.9591 H         1 UNK         0.2980 
    131 H131       34.2653   28.1585    4.6348 H         1 UNK         0.0545 
    132 H132       33.7710   30.9283    6.6530 H         1 UNK         0.3459 
    133 H133       33.4041   30.0144    8.0962 H         1 UNK         0.3459 
    134 H134       31.4642   29.3345    4.3790 H         1 UNK         0.0616 
    135 H135       31.8731   27.6489    4.4437 H         1 UNK         0.0616 
    136 H136       34.3412   27.2357    2.5523 H         1 UNK         0.0634 
    137 H137       33.7454   27.2032    0.9216 H         1 UNK         0.0634 
@<TRIPOS>BOND
     1    1    2 1    
     2    1   72 1    
     3    1   73 1    
     4    1   74 1    
     5    2    3 2    
     6    2    4 am   BACKBONE|DICT|INTERRES
     7    4    5 1    
     8    4   75 1    
     9    5    6 1    
    10    5   35 1    
    11    5   76 1    
    12    6    7 1    
    13    6   77 1    
    14    6   78 1    
    15    7    8 1    
    16    8    9 1    
    17    8   79 1    
    18    8   80 1    
    19    9   10 ar   
    20    9   14 ar   
    21   10   11 ar   
    22   10   81 1    
    23   11   12 ar   
    24   11   71 1    
    25   12   13 ar   
    26   12   82 1    
    27   13   14 ar   
    28   13   15 1    
    29   14   83 1    
    30   15   16 1    
    31   15   84 1    
    32   15   85 1    
    33   16   17 1    
    34   17   18 1    
    35   17   86 1    
    36   17   87 1    
    37   18   19 1    
    38   18   37 1    
    39   18   88 1    
    40   19   20 am   BACKBONE|DICT|INTERRES
    41   19   89 1    
    42   20   21 2    
    43   20   22 1    
    44   22   23 1    
    45   22   24 1    
    46   22   90 1    
    47   23   91 1    
    48   23   92 1    
    49   23   93 1    
    50   24   25 am   BACKBONE|DICT|INTERRES
    51   24   94 1    
    52   25   26 2    
    53   25   27 1    
    54   27   28 1    
    55   27   29 1    
    56   27   95 1    
    57   28   96 1    
    58   28   97 1    
    59   28   98 1    
    60   29   30 am   BACKBONE|DICT|INTERRES
    61   29   99 1    
    62   30   31 2    
    63   30   32 1    
    64   32   33 1    
    65   32   34 1    
    66   32  100 1    
    67   33  101 1    
    68   33  102 1    
    69   33  103 1    
    70   34   35 am   BACKBONE|DICT|INTERRES
    71   34  104 1    
    72   35   36 2    
    73   37   38 2    
    74   37   39 am   BACKBONE|DICT|INTERRES
    75   39   40 1    
    76   39  105 1    
    77   40   41 1    
    78   40   42 1    
    79   40  106 1    
    80   41  107 1    
    81   41  108 1    
    82   41  109 1    
    83   42   43 2    
    84   42   44 am   BACKBONE|DICT|INTERRES
    85   44   45 1    
    86   44  110 1    
    87   45   46 1    
    88   45   47 1    
    89   45  111 1    
    90   46  112 1    
    91   46  113 1    
    92   46  114 1    
    93   47   48 2    
    94   47   49 am   BACKBONE|DICT|INTERRES
    95   49   50 1    
    96   49  115 1    
    97   50   51 1    
    98   50   52 1    
    99   50  116 1    
   100   51  117 1    
   101   51  118 1    
   102   51  119 1    
   103   52   53 2    
   104   52   54 am   BACKBONE|DICT|INTERRES
   105   54   55 1    
   106   54  120 1    
   107   55   56 1    
   108   55   57 1    
   109   55  121 1    
   110   56  122 1    
   111   56  123 1    
   112   56  124 1    
   113   57   58 2    
   114   57   59 am   BACKBONE|DICT|INTERRES
   115   59   60 1    
   116   59  125 1    
   117   60   61 1    
   118   60   62 1    
   119   60  126 1    
   120   61  127 1    
   121   61  128 1    
   122   61  129 1    
   123   62   63 2    
   124   62   64 am   BACKBONE|DICT|INTERRES
   125   64   65 1    
   126   64  130 1    
   127   65   66 1    
   128   65   69 1    
   129   65  131 1    
   130   66   67 am   BACKBONE|DICT|INTERRES
   131   66   68 2    
   132   67  132 1    
   133   67  133 1    
   134   69   70 1    
   135   69  134 1    
   136   69  135 1    
   137   70   71 1    
   138   71  136 1    
   139   71  137 1    
@<TRIPOS>SUBSTRUCTURE
     1 UNK         1 GROUP             0       ****    0 ROOT    
