@<TRIPOS>MOLECULE
3R136
137   139    1
SMALL
USER_CHARGES


@<TRIPOS>ATOM
      1 CA         29.8123   25.1854    3.8654 C.3       0 UNK        -0.1979 
      2 C          29.1752   24.0115    3.1388 C.2       0 UNK         0.4864 
      3 O          28.1852   23.4579    3.6202 O.2       0 UNK        -0.5359 
      4 N          29.7378   23.6210    1.9881 N.am      1 UNK        -0.4318 
      5 CA         29.2340   22.5390    1.1402 C.3       1 UNK         0.0824 
      6 C6         30.3245   21.9754    0.1949 C.3       12 UNK        -0.0944 
      7 S7         31.7111   21.2263    1.1169 S.3       12 UNK        -0.2672 
      8 C8         33.1314   22.2218    0.5630 C.3       12 UNK         0.0333 
      9 C9         33.0799   23.6456    1.0977 C.ar      12 UNK        -0.0807 
     10 C10        33.4813   23.9209    2.4080 C.ar      12 UNK        -0.0894 
     11 C11        33.4648   25.2317    2.8944 C.ar      12 UNK        -0.0804 
     12 C12        33.0269   26.2686    2.0651 C.ar      12 UNK        -0.0824 
     13 C13        32.6132   26.0047    0.7560 C.ar      12 UNK        -0.0762 
     14 C14        32.6560   24.6925    0.2750 C.ar      12 UNK        -0.0782 
     15 C15        32.1529   27.1384   -0.1517 C.3       12 UNK         0.0230 
     16 S16        30.4902   26.8417   -0.8346 S.3       12 UNK        -0.2608 
     17 C17        29.4291   27.0613    0.6334 C.3       12 UNK        -0.0989 
     18 CA         28.2494   28.0308    0.3679 C.3       5 UNK         0.0716 
     19 N          27.3569   27.5200   -0.6717 N.am      5 UNK        -0.4135 
     20 C          27.1851   28.0508   -1.8894 C.2       4 UNK         0.5031 
     21 O          27.7618   29.0635   -2.2879 O.2       4 UNK        -0.5229 
     22 CA         26.1850   27.3462   -2.8278 C.3       4 UNK         0.0329 
     23 CB         26.9304   26.4052   -3.7881 C.3       4 UNK        -0.2001 
     24 N          25.1540   26.5840   -2.1189 N.am      4 UNK        -0.4303 
     25 C          24.2424   27.1101   -1.2889 C.2       3 UNK         0.5044 
     26 O          24.1005   28.3201   -1.1123 O.2       3 UNK        -0.5152 
     27 CA         23.3744   26.1259   -0.4830 C.3       3 UNK         0.0319 
     28 CB         21.9813   25.9970   -1.1190 C.3       3 UNK        -0.2001 
     29 N          23.9530   24.7861   -0.3130 N.am      3 UNK        -0.4354 
     30 C          25.1213   24.4987    0.2816 C.2       2 UNK         0.4964 
     31 O          25.8869   25.3576    0.7258 O.2       2 UNK        -0.5047 
     32 CA         25.4610   22.9991    0.4005 C.3       2 UNK         0.0288 
     33 CB         25.2420   22.2360   -0.9269 C.3       2 UNK        -0.2113 
     34 N          26.8048   22.7346    0.9318 N.am      2 UNK        -0.4145 
     35 C          27.9877   23.0075    0.3607 C.2       1 UNK         0.5006 
     36 O          28.1239   23.5829   -0.7217 O.2       1 UNK        -0.5103 
     37 C          27.4245   28.3267    1.6375 C.2       5 UNK         0.5055 
     38 O          27.8861   28.0589    2.7473 O.2       5 UNK        -0.5220 
     39 N          26.2144   28.8834    1.4648 N.am      6 UNK        -0.4450 
     40 CA         25.3301   29.3042    2.5595 C.3       6 UNK         0.0367 
     41 CB         23.9222   29.5738    2.0043 C.3       6 UNK        -0.1929 
     42 C          25.8421   30.5368    3.3304 C.2       6 UNK         0.5070 
     43 O          25.4099   30.7625    4.4613 O.2       6 UNK        -0.5237 
     44 N          26.7428   31.3089    2.7142 N.am      7 UNK        -0.4739 
     45 CA         27.4320   32.4563    3.2925 C.3       7 UNK         0.0276 
     46 CB         26.7000   33.7488    2.8913 C.3       7 UNK        -0.1927 
     47 C          28.8783   32.4565    2.7821 C.2       7 UNK         0.5013 
     48 O          29.1587   31.8417    1.7490 O.2       7 UNK        -0.5193 
     49 N          29.7601   33.1500    3.5174 N.am      8 UNK        -0.4253 
     50 CA         31.1984   33.3232    3.2551 C.3       8 UNK         0.0242 
     51 CB         31.4297   34.1164    1.9506 C.3       8 UNK        -0.2000 
     52 C          32.0189   32.0159    3.3004 C.2       8 UNK         0.4948 
     53 O          33.1182   31.9631    2.7443 O.2       8 UNK        -0.5275 
     54 N          31.5036   30.9892    3.9906 N.am      9 UNK        -0.4246 
     55 CA         32.1279   29.6752    4.1607 C.3       9 UNK         0.0261 
     56 CB         31.0274   28.6447    4.4710 C.3       9 UNK        -0.1959 
     57 C          33.2352   29.7026    5.2318 C.2       9 UNK         0.5033 
     58 O          33.1480   28.9936    6.2369 O.2       9 UNK        -0.5390 
     59 N          34.2545   30.5403    5.0087 N.am      10 UNK        -0.4215 
     60 CA         35.3649   30.8280    5.9218 C.3       10 UNK         0.0240 
     61 CB         35.9874   32.1802    5.5240 C.3       10 UNK        -0.1982 
     62 C          36.4103   29.6947    6.0118 C.2       10 UNK         0.4970 
     63 O          37.6075   29.9503    5.8673 O.2       10 UNK        -0.4916 
     64 N          35.9453   28.4662    6.2622 N.am      11 UNK        -0.4279 
     65 CA         36.7826   27.2807    6.5088 C.3       11 UNK         0.1003 
     66 C          37.3483   27.1958    7.9572 C.2       11 UNK         0.5709 
     67 N          36.9151   28.0292    8.8965 N.am      11 UNK        -0.7358 
     68 O          38.2093   26.3631    8.2315 O.2       11 UNK        -0.4999 
     69 C69        36.0537   25.9697    6.1152 C.3       12 UNK        -0.0954 
     70 S70        35.7216   25.8727    4.3254 S.3       12 UNK        -0.2268 
     71 C71        33.9388   25.5260    4.3088 C.3       12 UNK         0.0203 
     72 H72        30.5526   25.6870    3.2459 H         1 UNK         0.0888 
     73 H73        29.0519   25.9179    4.1359 H         1 UNK         0.0888 
     74 H74        30.3020   24.8452    4.7772 H         1 UNK         0.0888 
     75 H75        30.5644   24.0909    1.6451 H         1 UNK         0.3017 
     76 H76        28.9267   21.7162    1.7902 H         1 UNK         0.0873 
     77 H77        29.9030   21.1971   -0.4442 H         1 UNK         0.0745 
     78 H78        30.6922   22.7485   -0.4809 H         1 UNK         0.0745 
     79 H79        34.0495   21.7415    0.9046 H         1 UNK         0.0705 
     80 H80        33.1758   22.2167   -0.5273 H         1 UNK         0.0705 
     81 H81        33.8214   23.1151    3.0445 H         1 UNK         0.1334 
     82 H82        33.0233   27.2820    2.4371 H         1 UNK         0.1417 
     83 H83        32.3559   24.4903   -0.7446 H         1 UNK         0.1562 
     84 H84        32.8587   27.2329   -0.9780 H         1 UNK         0.0748 
     85 H85        32.1622   28.0962    0.3713 H         1 UNK         0.0748 
     86 H86        29.0478   26.0839    0.9292 H         1 UNK         0.0940 
     87 H87        30.0423   27.4203    1.4614 H         1 UNK         0.0940 
     88 H88        28.6696   28.9922    0.0647 H         1 UNK         0.0703 
     89 H89        26.8202   26.6986   -0.4061 H         1 UNK         0.3081 
     90 H90        25.6851   28.1182   -3.4165 H         1 UNK         0.0719 
     91 H91        27.4371   25.6013   -3.2512 H         1 UNK         0.0809 
     92 H92        26.2513   25.9533   -4.5112 H         1 UNK         0.0809 
     93 H93        27.6900   26.9472   -4.3534 H         1 UNK         0.0809 
     94 H94        25.1956   25.5787   -2.2003 H         1 UNK         0.2990 
     95 H95        23.2544   26.5497    0.5154 H         1 UNK         0.0690 
     96 H96        21.3168   25.3905   -0.5032 H         1 UNK         0.0788 
     97 H97        22.0301   25.5439   -2.1101 H         1 UNK         0.0788 
     98 H98        21.5108   26.9751   -1.2309 H         1 UNK         0.0788 
     99 H99        23.3905   24.0170   -0.6478 H         1 UNK         0.2993 
    100 H100       24.7684   22.5914    1.1384 H         1 UNK         0.0949 
    101 H101       25.5495   21.1939   -0.8375 H         1 UNK         0.0767 
    102 H102       24.1918   22.2282   -1.2196 H         1 UNK         0.0767 
    103 H103       25.8068   22.6784   -1.7485 H         1 UNK         0.0767 
    104 H104       26.8271   22.3576    1.8706 H         1 UNK         0.3013 
    105 H105       25.8823   29.0469    0.5235 H         1 UNK         0.3121 
    106 H106       25.2623   28.4815    3.2747 H         1 UNK         0.0774 
    107 H107       23.9322   30.3448    1.2329 H         1 UNK         0.0815 
    108 H108       23.2469   29.9094    2.7927 H         1 UNK         0.0815 
    109 H109       23.4862   28.6736    1.5740 H         1 UNK         0.0815 
    110 H110       27.1015   31.0207    1.8129 H         1 UNK         0.2987 
    111 H111       27.4510   32.3669    4.3812 H         1 UNK         0.0949 
    112 H112       26.6751   33.8776    1.8084 H         1 UNK         0.0806 
    113 H113       25.6710   33.7481    3.2514 H         1 UNK         0.0806 
    114 H114       27.1895   34.6271    3.3140 H         1 UNK         0.0806 
    115 H115       29.4181   33.6163    4.3473 H         1 UNK         0.3010 
    116 H116       31.5797   33.9330    4.0756 H         1 UNK         0.0829 
    117 H117       30.8602   35.0457    1.9442 H         1 UNK         0.0813 
    118 H118       32.4809   34.3829    1.8341 H         1 UNK         0.0813 
    119 H119       31.1431   33.5406    1.0701 H         1 UNK         0.0813 
    120 H120       30.6163   31.1266    4.4511 H         1 UNK         0.3038 
    121 H121       32.5976   29.3919    3.2173 H         1 UNK         0.0769 
    122 H122       30.4944   28.8852    5.3916 H         1 UNK         0.0811 
    123 H123       31.4426   27.6448    4.5902 H         1 UNK         0.0811 
    124 H124       30.2968   28.5961    3.6649 H         1 UNK         0.0811 
    125 H125       34.2200   31.0793    4.1476 H         1 UNK         0.3204 
    126 H126       34.9500   30.9438    6.9253 H         1 UNK         0.0748 
    127 H127       36.7754   32.4716    6.2200 H         1 UNK         0.0771 
    128 H128       36.4279   32.1426    4.5267 H         1 UNK         0.0771 
    129 H129       35.2435   32.9773    5.5315 H         1 UNK         0.0771 
    130 H130       34.9411   28.3528    6.3680 H         1 UNK         0.2980 
    131 H131       37.6625   27.3591    5.8671 H         1 UNK         0.0545 
    132 H132       37.2966   27.9640    9.8272 H         1 UNK         0.3459 
    133 H133       36.2061   28.7131    8.6880 H         1 UNK         0.3459 
    134 H134       36.6581   25.0972    6.3708 H         1 UNK         0.0616 
    135 H135       35.1232   25.8704    6.6770 H         1 UNK         0.0616 
    136 H136       33.7260   24.6752    4.9581 H         1 UNK         0.0634 
    137 H137       33.4033   26.3789    4.7259 H         1 UNK         0.0634 
@<TRIPOS>BOND
     1    1    2 1    
     2    1   72 1    
     3    1   73 1    
     4    1   74 1    
     5    2    3 2    
     6    2    4 am   BACKBONE|DICT|INTERRES
     7    4    5 1    
     8    4   75 1    
     9    5    6 1    
    10    5   35 1    
    11    5   76 1    
    12    6    7 1    
    13    6   77 1    
    14    6   78 1    
    15    7    8 1    
    16    8    9 1    
    17    8   79 1    
    18    8   80 1    
    19    9   10 ar   
    20    9   14 ar   
    21   10   11 ar   
    22   10   81 1    
    23   11   12 ar   
    24   11   71 1    
    25   12   13 ar   
    26   12   82 1    
    27   13   14 ar   
    28   13   15 1    
    29   14   83 1    
    30   15   16 1    
    31   15   84 1    
    32   15   85 1    
    33   16   17 1    
    34   17   18 1    
    35   17   86 1    
    36   17   87 1    
    37   18   19 1    
    38   18   37 1    
    39   18   88 1    
    40   19   20 am   BACKBONE|DICT|INTERRES
    41   19   89 1    
    42   20   21 2    
    43   20   22 1    
    44   22   23 1    
    45   22   24 1    
    46   22   90 1    
    47   23   91 1    
    48   23   92 1    
    49   23   93 1    
    50   24   25 am   BACKBONE|DICT|INTERRES
    51   24   94 1    
    52   25   26 2    
    53   25   27 1    
    54   27   28 1    
    55   27   29 1    
    56   27   95 1    
    57   28   96 1    
    58   28   97 1    
    59   28   98 1    
    60   29   30 am   BACKBONE|DICT|INTERRES
    61   29   99 1    
    62   30   31 2    
    63   30   32 1    
    64   32   33 1    
    65   32   34 1    
    66   32  100 1    
    67   33  101 1    
    68   33  102 1    
    69   33  103 1    
    70   34   35 am   BACKBONE|DICT|INTERRES
    71   34  104 1    
    72   35   36 2    
    73   37   38 2    
    74   37   39 am   BACKBONE|DICT|INTERRES
    75   39   40 1    
    76   39  105 1    
    77   40   41 1    
    78   40   42 1    
    79   40  106 1    
    80   41  107 1    
    81   41  108 1    
    82   41  109 1    
    83   42   43 2    
    84   42   44 am   BACKBONE|DICT|INTERRES
    85   44   45 1    
    86   44  110 1    
    87   45   46 1    
    88   45   47 1    
    89   45  111 1    
    90   46  112 1    
    91   46  113 1    
    92   46  114 1    
    93   47   48 2    
    94   47   49 am   BACKBONE|DICT|INTERRES
    95   49   50 1    
    96   49  115 1    
    97   50   51 1    
    98   50   52 1    
    99   50  116 1    
   100   51  117 1    
   101   51  118 1    
   102   51  119 1    
   103   52   53 2    
   104   52   54 am   BACKBONE|DICT|INTERRES
   105   54   55 1    
   106   54  120 1    
   107   55   56 1    
   108   55   57 1    
   109   55  121 1    
   110   56  122 1    
   111   56  123 1    
   112   56  124 1    
   113   57   58 2    
   114   57   59 am   BACKBONE|DICT|INTERRES
   115   59   60 1    
   116   59  125 1    
   117   60   61 1    
   118   60   62 1    
   119   60  126 1    
   120   61  127 1    
   121   61  128 1    
   122   61  129 1    
   123   62   63 2    
   124   62   64 am   BACKBONE|DICT|INTERRES
   125   64   65 1    
   126   64  130 1    
   127   65   66 1    
   128   65   69 1    
   129   65  131 1    
   130   66   67 am   BACKBONE|DICT|INTERRES
   131   66   68 2    
   132   67  132 1    
   133   67  133 1    
   134   69   70 1    
   135   69  134 1    
   136   69  135 1    
   137   70   71 1    
   138   71  136 1    
   139   71  137 1    
@<TRIPOS>SUBSTRUCTURE
     1 UNK         1 GROUP             0       ****    0 ROOT    
