@<TRIPOS>MOLECULE
3R136
137   139    1
SMALL
USER_CHARGES


@<TRIPOS>ATOM
      1 CA         28.4589   20.9960   -0.3542 C.3       0 UNK        -0.1979 
      2 C          28.8208   22.3695   -0.8974 C.2       0 UNK         0.4864 
      3 O          28.2483   23.3668   -0.4596 O.2       0 UNK        -0.5359 
      4 N          29.7628   22.4318   -1.8496 N.am      1 UNK        -0.4318 
      5 CA         30.2736   23.6555   -2.4838 C.3       1 UNK         0.0824 
      6 C6         31.1079   24.5383   -1.5112 C.3       12 UNK        -0.0944 
      7 S7         32.5733   23.6748   -0.8631 S.3       12 UNK        -0.2672 
      8 C8         33.0855   24.8331    0.4538 C.3       12 UNK         0.0333 
      9 C9         32.2225   24.8476    1.7197 C.ar      12 UNK        -0.0807 
     10 C10        32.4149   25.8894    2.6329 C.ar      12 UNK        -0.0894 
     11 C11        31.6934   25.9464    3.8266 C.ar      12 UNK        -0.0804 
     12 C12        30.7873   24.9266    4.1238 C.ar      12 UNK        -0.0824 
     13 C13        30.5330   23.9084    3.2011 C.ar      12 UNK        -0.0762 
     14 C14        31.2633   23.8653    2.0087 C.ar      12 UNK        -0.0782 
     15 C15        29.4594   22.8646    3.4855 C.3       12 UNK         0.0230 
     16 S16        27.7889   23.4590    3.0393 S.3       12 UNK        -0.2608 
     17 C17        27.3997   24.5783    4.4276 C.3       12 UNK        -0.0989 
     18 CA         27.6212   26.0699    4.0560 C.3       5 UNK         0.0716 
     19 N          26.5598   26.5868    3.1829 N.am      5 UNK        -0.4135 
     20 C          26.6080   27.6926    2.4265 C.2       4 UNK         0.5031 
     21 O          27.5699   28.4677    2.4037 O.2       4 UNK        -0.5229 
     22 CA         25.3934   27.9533    1.5173 C.3       4 UNK         0.0329 
     23 CB         25.4185   29.3659    0.9037 C.3       4 UNK        -0.2001 
     24 N          25.3430   26.9715    0.4349 N.am      4 UNK        -0.4303 
     25 C          24.9740   25.6898    0.5504 C.2       3 UNK         0.5044 
     26 O          24.5115   25.2145    1.5892 O.2       3 UNK        -0.5152 
     27 CA         25.1938   24.7677   -0.6632 C.3       3 UNK         0.0319 
     28 CB         23.8842   24.5317   -1.4412 C.3       3 UNK        -0.2001 
     29 N          26.3013   25.1755   -1.5446 N.am      3 UNK        -0.4354 
     30 C          26.3649   26.2097   -2.3998 C.2       2 UNK         0.4964 
     31 O          25.4362   26.9995   -2.5692 O.2       2 UNK        -0.5047 
     32 CA         27.6900   26.4598   -3.1491 C.3       2 UNK         0.0288 
     33 CB         28.1273   27.9313   -3.0177 C.3       2 UNK        -0.2113 
     34 N          28.7841   25.6109   -2.6750 N.am      2 UNK        -0.4145 
     35 C          29.1281   24.4213   -3.1872 C.2       1 UNK         0.5006 
     36 O          28.5712   23.9091   -4.1606 O.2       1 UNK        -0.5103 
     37 C          27.8879   26.9628    5.2915 C.2       5 UNK         0.5055 
     38 O          27.7600   26.5222    6.4348 O.2       5 UNK        -0.5220 
     39 N          28.2968   28.1990    5.0143 N.am      6 UNK        -0.4450 
     40 CA         28.8142   29.2096    5.9240 C.3       6 UNK         0.0367 
     41 CB         27.6895   29.8510    6.7577 C.3       6 UNK        -0.1929 
     42 C          29.5522   30.2370    5.0631 C.2       6 UNK         0.5070 
     43 O          30.7505   30.4464    5.2466 O.2       6 UNK        -0.5237 
     44 N          28.8320   30.8091    4.0890 N.am      7 UNK        -0.4739 
     45 CA         29.3528   31.7826    3.1308 C.3       7 UNK         0.0276 
     46 CB         28.1748   32.5056    2.4587 C.3       7 UNK        -0.1927 
     47 C          30.2728   31.1664    2.0648 C.2       7 UNK         0.5013 
     48 O          31.2186   31.8379    1.6529 O.2       7 UNK        -0.5193 
     49 N          29.9899   29.9185    1.6517 N.am      8 UNK        -0.4253 
     50 CA         30.5799   29.2049    0.5063 C.3       8 UNK         0.0242 
     51 CB         30.0812   27.7507    0.4992 C.3       8 UNK        -0.2000 
     52 C          32.1141   29.2488    0.3578 C.2       8 UNK         0.4948 
     53 O          32.5982   29.2615   -0.7747 O.2       8 UNK        -0.5275 
     54 N          32.8457   29.3019    1.4770 N.am      9 UNK        -0.4246 
     55 CA         34.2811   29.5994    1.5094 C.3       9 UNK         0.0261 
     56 CB         35.1137   28.3038    1.4259 C.3       9 UNK        -0.1959 
     57 C          34.6389   30.4568    2.7347 C.2       9 UNK         0.5033 
     58 O          35.7643   30.3558    3.2257 O.2       9 UNK        -0.5390 
     59 N          33.6813   31.2747    3.2066 N.am      10 UNK        -0.4215 
     60 CA         33.7543   32.1405    4.3923 C.3       10 UNK         0.0240 
     61 CB         34.6227   33.3799    4.0901 C.3       10 UNK        -0.1982 
     62 C          34.2068   31.3862    5.6610 C.2       10 UNK         0.4970 
     63 O          35.2263   31.7365    6.2601 O.2       10 UNK        -0.4916 
     64 N          33.4482   30.3467    6.0303 N.am      11 UNK        -0.4279 
     65 CA         33.7128   29.5024    7.2069 C.3       11 UNK         0.1003 
     66 C          33.4322   30.2045    8.5681 C.2       11 UNK         0.5709 
     67 N          32.6732   31.2939    8.6109 N.am      11 UNK        -0.7358 
     68 O          33.9172   29.7530    9.6029 O.2       11 UNK        -0.4999 
     69 C69        32.9624   28.1461    7.1385 C.3       12 UNK        -0.0954 
     70 S70        33.3991   27.1163    5.6926 S.3       12 UNK        -0.2268 
     71 C71        31.8368   27.1365    4.7648 C.3       12 UNK         0.0203 
     72 H72        27.4194   20.7650   -0.5852 H         1 UNK         0.0888 
     73 H73        29.0862   20.2113   -0.7766 H         1 UNK         0.0888 
     74 H74        28.5780   20.9809    0.7289 H         1 UNK         0.0888 
     75 H75        30.1760   21.5738   -2.1869 H         1 UNK         0.3017 
     76 H76        30.9405   23.3297   -3.2839 H         1 UNK         0.0873 
     77 H77        31.4606   25.4415   -2.0134 H         1 UNK         0.0745 
     78 H78        30.5003   24.8583   -0.6636 H         1 UNK         0.0745 
     79 H79        34.1063   24.5816    0.7444 H         1 UNK         0.0705 
     80 H80        33.1261   25.8381    0.0303 H         1 UNK         0.0705 
     81 H81        33.1253   26.6688    2.4112 H         1 UNK         0.1334 
     82 H82        30.2378   24.9560    5.0537 H         1 UNK         0.1417 
     83 H83        31.0733   23.0629    1.3106 H         1 UNK         0.1562 
     84 H84        29.4851   22.5693    4.5354 H         1 UNK         0.0748 
     85 H85        29.6654   21.9574    2.9156 H         1 UNK         0.0748 
     86 H86        28.0077   24.2744    5.2810 H         1 UNK         0.0940 
     87 H87        26.3667   24.4121    4.7380 H         1 UNK         0.0940 
     88 H88        28.5347   26.1278    3.4630 H         1 UNK         0.0703 
     89 H89        25.7502   25.9871    3.0664 H         1 UNK         0.3081 
     90 H90        24.4909   27.8625    2.1254 H         1 UNK         0.0719 
     91 H91        25.4454   30.1290    1.6826 H         1 UNK         0.0809 
     92 H92        26.2927   29.5171    0.2684 H         1 UNK         0.0809 
     93 H93        24.5302   29.5516    0.2997 H         1 UNK         0.0809 
     94 H94        25.6633   27.2773   -0.4752 H         1 UNK         0.2990 
     95 H95        25.5016   23.8047   -0.2525 H         1 UNK         0.0690 
     96 H96        23.1263   24.0883   -0.7941 H         1 UNK         0.0788 
     97 H97        24.0366   23.8487   -2.2769 H         1 UNK         0.0788 
     98 H98        23.4661   25.4585   -1.8345 H         1 UNK         0.0788 
     99 H99        27.1415   24.6172   -1.4079 H         1 UNK         0.2993 
    100 H100       27.5014   26.2553   -4.2053 H         1 UNK         0.0949 
    101 H101       29.0657   28.1152   -3.5414 H         1 UNK         0.0767 
    102 H102       27.3840   28.6025   -3.4504 H         1 UNK         0.0767 
    103 H103       28.2613   28.2245   -1.9762 H         1 UNK         0.0767 
    104 H104       29.2672   25.9277   -1.8480 H         1 UNK         0.3013 
    105 H105       28.3025   28.4513    4.0268 H         1 UNK         0.3121 
    106 H106       29.5346   28.7457    6.5997 H         1 UNK         0.0774 
    107 H107       28.0799   30.6542    7.3839 H         1 UNK         0.0815 
    108 H108       26.9043   30.2747    6.1309 H         1 UNK         0.0815 
    109 H109       27.2255   29.1218    7.4219 H         1 UNK         0.0815 
    110 H110       27.8556   30.5661    3.9973 H         1 UNK         0.2987 
    111 H111       29.9383   32.5226    3.6817 H         1 UNK         0.0949 
    112 H112       27.5387   31.8140    1.9045 H         1 UNK         0.0806 
    113 H113       27.5537   33.0200    3.1922 H         1 UNK         0.0806 
    114 H114       28.5300   33.2583    1.7532 H         1 UNK         0.0806 
    115 H115       29.1634   29.4780    2.0465 H         1 UNK         0.3010 
    116 H116       30.1813   29.6913   -0.3862 H         1 UNK         0.0829 
    117 H117       30.2633   27.2547    1.4521 H         1 UNK         0.0813 
    118 H118       29.0116   27.6979    0.2993 H         1 UNK         0.0813 
    119 H119       30.5826   27.1720   -0.2755 H         1 UNK         0.0813 
    120 H120       32.3678   29.2763    2.3660 H         1 UNK         0.3038 
    121 H121       34.5312   30.2144    0.6421 H         1 UNK         0.0769 
    122 H122       34.7839   27.6635    0.6082 H         1 UNK         0.0811 
    123 H123       35.0677   27.7326    2.3531 H         1 UNK         0.0811 
    124 H124       36.1648   28.5340    1.2482 H         1 UNK         0.0811 
    125 H125       32.8221   31.3554    2.6686 H         1 UNK         0.3204 
    126 H126       32.7381   32.4884    4.5854 H         1 UNK         0.0748 
    127 H127       34.6301   34.0684    4.9361 H         1 UNK         0.0771 
    128 H128       35.6580   33.1075    3.8816 H         1 UNK         0.0771 
    129 H129       34.2415   33.9294    3.2293 H         1 UNK         0.0771 
    130 H130       32.5618   30.1926    5.5569 H         1 UNK         0.2980 
    131 H131       34.7811   29.2772    7.2036 H         1 UNK         0.0545 
    132 H132       32.5019   31.7426    9.4967 H         1 UNK         0.3459 
    133 H133       32.2609   31.6609    7.7683 H         1 UNK         0.3459 
    134 H134       31.8857   28.3166    7.1689 H         1 UNK         0.0616 
    135 H135       33.1901   27.5469    8.0222 H         1 UNK         0.0616 
    136 H136       31.0025   27.1432    5.4655 H         1 UNK         0.0634 
    137 H137       31.7693   28.0645    4.1967 H         1 UNK         0.0634 
@<TRIPOS>BOND
     1    1    2 1    
     2    1   72 1    
     3    1   73 1    
     4    1   74 1    
     5    2    3 2    
     6    2    4 am   BACKBONE|DICT|INTERRES
     7    4    5 1    
     8    4   75 1    
     9    5    6 1    
    10    5   35 1    
    11    5   76 1    
    12    6    7 1    
    13    6   77 1    
    14    6   78 1    
    15    7    8 1    
    16    8    9 1    
    17    8   79 1    
    18    8   80 1    
    19    9   10 ar   
    20    9   14 ar   
    21   10   11 ar   
    22   10   81 1    
    23   11   12 ar   
    24   11   71 1    
    25   12   13 ar   
    26   12   82 1    
    27   13   14 ar   
    28   13   15 1    
    29   14   83 1    
    30   15   16 1    
    31   15   84 1    
    32   15   85 1    
    33   16   17 1    
    34   17   18 1    
    35   17   86 1    
    36   17   87 1    
    37   18   19 1    
    38   18   37 1    
    39   18   88 1    
    40   19   20 am   BACKBONE|DICT|INTERRES
    41   19   89 1    
    42   20   21 2    
    43   20   22 1    
    44   22   23 1    
    45   22   24 1    
    46   22   90 1    
    47   23   91 1    
    48   23   92 1    
    49   23   93 1    
    50   24   25 am   BACKBONE|DICT|INTERRES
    51   24   94 1    
    52   25   26 2    
    53   25   27 1    
    54   27   28 1    
    55   27   29 1    
    56   27   95 1    
    57   28   96 1    
    58   28   97 1    
    59   28   98 1    
    60   29   30 am   BACKBONE|DICT|INTERRES
    61   29   99 1    
    62   30   31 2    
    63   30   32 1    
    64   32   33 1    
    65   32   34 1    
    66   32  100 1    
    67   33  101 1    
    68   33  102 1    
    69   33  103 1    
    70   34   35 am   BACKBONE|DICT|INTERRES
    71   34  104 1    
    72   35   36 2    
    73   37   38 2    
    74   37   39 am   BACKBONE|DICT|INTERRES
    75   39   40 1    
    76   39  105 1    
    77   40   41 1    
    78   40   42 1    
    79   40  106 1    
    80   41  107 1    
    81   41  108 1    
    82   41  109 1    
    83   42   43 2    
    84   42   44 am   BACKBONE|DICT|INTERRES
    85   44   45 1    
    86   44  110 1    
    87   45   46 1    
    88   45   47 1    
    89   45  111 1    
    90   46  112 1    
    91   46  113 1    
    92   46  114 1    
    93   47   48 2    
    94   47   49 am   BACKBONE|DICT|INTERRES
    95   49   50 1    
    96   49  115 1    
    97   50   51 1    
    98   50   52 1    
    99   50  116 1    
   100   51  117 1    
   101   51  118 1    
   102   51  119 1    
   103   52   53 2    
   104   52   54 am   BACKBONE|DICT|INTERRES
   105   54   55 1    
   106   54  120 1    
   107   55   56 1    
   108   55   57 1    
   109   55  121 1    
   110   56  122 1    
   111   56  123 1    
   112   56  124 1    
   113   57   58 2    
   114   57   59 am   BACKBONE|DICT|INTERRES
   115   59   60 1    
   116   59  125 1    
   117   60   61 1    
   118   60   62 1    
   119   60  126 1    
   120   61  127 1    
   121   61  128 1    
   122   61  129 1    
   123   62   63 2    
   124   62   64 am   BACKBONE|DICT|INTERRES
   125   64   65 1    
   126   64  130 1    
   127   65   66 1    
   128   65   69 1    
   129   65  131 1    
   130   66   67 am   BACKBONE|DICT|INTERRES
   131   66   68 2    
   132   67  132 1    
   133   67  133 1    
   134   69   70 1    
   135   69  134 1    
   136   69  135 1    
   137   70   71 1    
   138   71  136 1    
   139   71  137 1    
@<TRIPOS>SUBSTRUCTURE
     1 UNK         1 GROUP             0       ****    0 ROOT    
