@<TRIPOS>MOLECULE
3R136
137   139    1
SMALL
USER_CHARGES


@<TRIPOS>ATOM
      1 CA         30.7092   25.7989   -0.8878 C.3       0 UNK        -0.1979 
      2 C          29.6199   24.9118   -0.3054 C.2       0 UNK         0.4864 
      3 O          28.4693   25.3439   -0.2226 O.2       0 UNK        -0.5359 
      4 N          29.9795   23.6805    0.0884 N.am      1 UNK        -0.4318 
      5 CA         29.1100   22.6985    0.7546 C.3       1 UNK         0.0824 
      6 C6         29.8926   21.4619    1.2715 C.3       12 UNK        -0.0944 
      7 S7         31.4353   21.8335    2.1656 S.3       12 UNK        -0.2672 
      8 C8         30.8157   22.3209    3.8105 C.3       12 UNK         0.0333 
      9 C9         30.5367   23.8163    3.9448 C.ar      12 UNK        -0.0807 
     10 C10        31.3945   24.7636    3.3740 C.ar      12 UNK        -0.0894 
     11 C11        31.1904   26.1305    3.5777 C.ar      12 UNK        -0.0804 
     12 C12        30.1196   26.5528    4.3665 C.ar      12 UNK        -0.0824 
     13 C13        29.2359   25.6225    4.9215 C.ar      12 UNK        -0.0762 
     14 C14        29.4494   24.2565    4.7071 C.ar      12 UNK        -0.0782 
     15 C15        28.0652   26.0916    5.7737 C.3       12 UNK         0.0230 
     16 S16        26.5644   26.3657    4.7782 S.3       12 UNK        -0.2608 
     17 C17        27.0041   27.8724    3.8456 C.3       12 UNK        -0.0989 
     18 CA         27.2451   27.5764    2.3375 C.3       5 UNK         0.0716 
     19 N          26.0256   27.1168    1.6578 N.am      5 UNK        -0.4135 
     20 C          24.9038   27.8210    1.4376 C.2       4 UNK         0.5031 
     21 O          24.7596   29.0028    1.7561 O.2       4 UNK        -0.5229 
     22 CA         23.7487   27.0785    0.7293 C.3       4 UNK         0.0329 
     23 CB         22.4952   27.9569    0.5523 C.3       4 UNK        -0.2001 
     24 N          24.1478   26.5572   -0.5811 N.am      4 UNK        -0.4303 
     25 C          24.9159   25.4784   -0.7696 C.2       3 UNK         0.5044 
     26 O          25.3203   24.7767    0.1613 O.2       3 UNK        -0.5152 
     27 CA         25.3158   25.1580   -2.2190 C.3       3 UNK         0.0319 
     28 CB         26.0051   26.3558   -2.8941 C.3       3 UNK        -0.2001 
     29 N          26.2647   24.0516   -2.2133 N.am      3 UNK        -0.4354 
     30 C          26.0425   22.8166   -2.6740 C.2       2 UNK         0.4964 
     31 O          25.0143   22.4746   -3.2600 O.2       2 UNK        -0.5047 
     32 CA         27.1631   21.7826   -2.4562 C.3       2 UNK         0.0288 
     33 CB         27.8908   21.4905   -3.7793 C.3       2 UNK        -0.2113 
     34 N          28.1507   22.1978   -1.4545 N.am      2 UNK        -0.4145 
     35 C          27.9453   22.2029   -0.1285 C.2       1 UNK         0.5006 
     36 O          26.9074   21.8061    0.4030 O.2       1 UNK        -0.5103 
     37 C          27.8819   28.7692    1.5896 C.2       5 UNK         0.5055 
     38 O          28.1206   29.8155    2.1939 O.2       5 UNK        -0.5220 
     39 N          28.1100   28.6026    0.2767 N.am      6 UNK        -0.4450 
     40 CA         28.4212   29.6832   -0.6725 C.3       6 UNK         0.0367 
     41 CB         28.5568   29.1134   -2.0935 C.3       6 UNK        -0.1929 
     42 C          29.6363   30.5660   -0.3339 C.2       6 UNK         0.5070 
     43 O          29.5799   31.7723   -0.5752 O.2       6 UNK        -0.5237 
     44 N          30.7042   29.9690    0.2129 N.am      7 UNK        -0.4739 
     45 CA         31.9168   30.6952    0.6162 C.3       7 UNK         0.0276 
     46 CB         33.1425   29.7809    0.4576 C.3       7 UNK        -0.1927 
     47 C          31.8280   31.2790    2.0408 C.2       7 UNK         0.5013 
     48 O          32.7144   32.0438    2.4262 O.2       7 UNK        -0.5193 
     49 N          30.7695   30.9239    2.7875 N.am      8 UNK        -0.4253 
     50 CA         30.4118   31.3979    4.1274 C.3       8 UNK         0.0242 
     51 CB         29.7450   32.7880    4.0172 C.3       8 UNK        -0.2000 
     52 C          31.5852   31.3330    5.1253 C.2       8 UNK         0.4948 
     53 O          32.1239   30.2488    5.3550 O.2       8 UNK        -0.5275 
     54 N          31.9703   32.4918    5.6774 N.am      9 UNK        -0.4246 
     55 CA         33.0199   32.6770    6.6827 C.3       9 UNK         0.0261 
     56 CB         32.9857   34.1367    7.1675 C.3       9 UNK        -0.1959 
     57 C          34.4434   32.2882    6.2384 C.2       9 UNK         0.5033 
     58 O          35.3238   32.2120    7.0972 O.2       9 UNK        -0.5390 
     59 N          34.6652   32.0442    4.9371 N.am      10 UNK        -0.4215 
     60 CA         35.9248   31.5016    4.4201 C.3       10 UNK         0.0240 
     61 CB         35.9588   31.6339    2.8905 C.3       10 UNK        -0.1982 
     62 C          36.1586   30.0371    4.8370 C.2       10 UNK         0.4970 
     63 O          37.3155   29.6268    4.9401 O.2       10 UNK        -0.4916 
     64 N          35.0760   29.2828    5.0701 N.am      11 UNK        -0.4279 
     65 CA         35.1218   27.9112    5.5890 C.3       11 UNK         0.1003 
     66 C          35.2526   27.9032    7.1342 C.2       11 UNK         0.5709 
     67 N          36.0180   26.9719    7.6870 N.am      11 UNK        -0.7358 
     68 O          34.6395   28.7036    7.8381 O.2       11 UNK        -0.4999 
     69 C69        33.8921   27.0898    5.1324 C.3       12 UNK        -0.0954 
     70 S70        33.8710   26.8572    3.3241 S.3       12 UNK        -0.2268 
     71 C71        32.1172   27.1550    2.9399 C.3       12 UNK         0.0203 
     72 H72        30.5160   25.9840   -1.9440 H         1 UNK         0.0888 
     73 H73        30.7279   26.7568   -0.3707 H         1 UNK         0.0888 
     74 H74        31.6964   25.3463   -0.7952 H         1 UNK         0.0888 
     75 H75        30.9463   23.3989    0.0062 H         1 UNK         0.3017 
     76 H76        28.6647   23.2048    1.6141 H         1 UNK         0.0873 
     77 H77        30.1738   20.8163    0.4365 H         1 UNK         0.0745 
     78 H78        29.2560   20.8508    1.9147 H         1 UNK         0.0745 
     79 H79        29.9288   21.7344    4.0545 H         1 UNK         0.0705 
     80 H80        31.5709   22.0540    4.5507 H         1 UNK         0.0705 
     81 H81        32.2416   24.4404    2.7853 H         1 UNK         0.1334 
     82 H82        29.9768   27.6090    4.5455 H         1 UNK         0.1417 
     83 H83        28.7787   23.5357    5.1552 H         1 UNK         0.1562 
     84 H84        28.3238   27.0053    6.3113 H         1 UNK         0.0748 
     85 H85        27.8445   25.3463    6.5393 H         1 UNK         0.0748 
     86 H86        27.8770   28.3352    4.3048 H         1 UNK         0.0940 
     87 H87        26.2020   28.6012    3.9721 H         1 UNK         0.0940 
     88 H88        27.9661   26.7601    2.2647 H         1 UNK         0.0703 
     89 H89        26.0411   26.1583    1.3176 H         1 UNK         0.3081 
     90 H90        23.4711   26.2388    1.3705 H         1 UNK         0.0719 
     91 H91        21.6755   27.3939    0.1055 H         1 UNK         0.0809 
     92 H92        22.6934   28.8225   -0.0811 H         1 UNK         0.0809 
     93 H93        22.1409   28.3306    1.5140 H         1 UNK         0.0809 
     94 H94        23.8655   27.0996   -1.3848 H         1 UNK         0.2990 
     95 H95        24.4109   24.8996   -2.7725 H         1 UNK         0.0690 
     96 H96        26.2958   26.1156   -3.9170 H         1 UNK         0.0788 
     97 H97        26.9078   26.6377   -2.3526 H         1 UNK         0.0788 
     98 H98        25.3556   27.2300   -2.9445 H         1 UNK         0.0788 
     99 H99        27.0934   24.2107   -1.6527 H         1 UNK         0.2993 
    100 H100       26.6895   20.8602   -2.1124 H         1 UNK         0.0949 
    101 H101       28.6430   20.7111   -3.6554 H         1 UNK         0.0767 
    102 H102       27.1914   21.1441   -4.5417 H         1 UNK         0.0767 
    103 H103       28.3869   22.3791   -4.1722 H         1 UNK         0.0767 
    104 H104       29.0410   22.5261   -1.7999 H         1 UNK         0.3013 
    105 H105       27.9257   27.6887   -0.1180 H         1 UNK         0.3121 
    106 H106       27.5563   30.3502   -0.6697 H         1 UNK         0.0774 
    107 H107       28.9264   29.8685   -2.7894 H         1 UNK         0.0815 
    108 H108       29.2469   28.2705   -2.1326 H         1 UNK         0.0815 
    109 H109       27.5918   28.7881   -2.4772 H         1 UNK         0.0815 
    110 H110       30.6747   28.9749    0.3816 H         1 UNK         0.2987 
    111 H111       32.0598   31.5415   -0.0599 H         1 UNK         0.0949 
    112 H112       33.2033   29.0322    1.2439 H         1 UNK         0.0806 
    113 H113       33.1396   29.2661   -0.5032 H         1 UNK         0.0806 
    114 H114       34.0617   30.3649    0.5004 H         1 UNK         0.0806 
    115 H115       30.0673   30.3326    2.3560 H         1 UNK         0.3010 
    116 H116       29.6607   30.7027    4.5057 H         1 UNK         0.0829 
    117 H117       28.8728   32.7445    3.3640 H         1 UNK         0.0813 
    118 H118       29.3923   33.1421    4.9869 H         1 UNK         0.0813 
    119 H119       30.4215   33.5381    3.6051 H         1 UNK         0.0813 
    120 H120       31.4814   33.3269    5.3890 H         1 UNK         0.3038 
    121 H121       32.7723   32.0313    7.5278 H         1 UNK         0.0769 
    122 H122       33.7240   34.3071    7.9526 H         1 UNK         0.0811 
    123 H123       32.0120   34.3961    7.5835 H         1 UNK         0.0811 
    124 H124       33.2046   34.8350    6.3586 H         1 UNK         0.0811 
    125 H125       33.8983   32.1324    4.2784 H         1 UNK         0.3204 
    126 H126       36.7432   32.0979    4.8295 H         1 UNK         0.0748 
    127 H127       36.9278   31.3275    2.4943 H         1 UNK         0.0771 
    128 H128       35.2032   31.0049    2.4218 H         1 UNK         0.0771 
    129 H129       35.7864   32.6624    2.5728 H         1 UNK         0.0771 
    130 H130       34.1545   29.7030    5.0275 H         1 UNK         0.2980 
    131 H131       36.0086   27.4211    5.1812 H         1 UNK         0.0545 
    132 H132       36.5157   26.3017    7.1215 H         1 UNK         0.3459 
    133 H133       36.1034   26.9414    8.6909 H         1 UNK         0.3459 
    134 H134       32.9687   27.5726    5.4582 H         1 UNK         0.0616 
    135 H135       33.8968   26.0977    5.5875 H         1 UNK         0.0616 
    136 H136       31.8572   28.1687    3.2492 H         1 UNK         0.0634 
    137 H137       31.9828   27.1112    1.8591 H         1 UNK         0.0634 
@<TRIPOS>BOND
     1    1    2 1    
     2    1   72 1    
     3    1   73 1    
     4    1   74 1    
     5    2    3 2    
     6    2    4 am   BACKBONE|DICT|INTERRES
     7    4    5 1    
     8    4   75 1    
     9    5    6 1    
    10    5   35 1    
    11    5   76 1    
    12    6    7 1    
    13    6   77 1    
    14    6   78 1    
    15    7    8 1    
    16    8    9 1    
    17    8   79 1    
    18    8   80 1    
    19    9   10 ar   
    20    9   14 ar   
    21   10   11 ar   
    22   10   81 1    
    23   11   12 ar   
    24   11   71 1    
    25   12   13 ar   
    26   12   82 1    
    27   13   14 ar   
    28   13   15 1    
    29   14   83 1    
    30   15   16 1    
    31   15   84 1    
    32   15   85 1    
    33   16   17 1    
    34   17   18 1    
    35   17   86 1    
    36   17   87 1    
    37   18   19 1    
    38   18   37 1    
    39   18   88 1    
    40   19   20 am   BACKBONE|DICT|INTERRES
    41   19   89 1    
    42   20   21 2    
    43   20   22 1    
    44   22   23 1    
    45   22   24 1    
    46   22   90 1    
    47   23   91 1    
    48   23   92 1    
    49   23   93 1    
    50   24   25 am   BACKBONE|DICT|INTERRES
    51   24   94 1    
    52   25   26 2    
    53   25   27 1    
    54   27   28 1    
    55   27   29 1    
    56   27   95 1    
    57   28   96 1    
    58   28   97 1    
    59   28   98 1    
    60   29   30 am   BACKBONE|DICT|INTERRES
    61   29   99 1    
    62   30   31 2    
    63   30   32 1    
    64   32   33 1    
    65   32   34 1    
    66   32  100 1    
    67   33  101 1    
    68   33  102 1    
    69   33  103 1    
    70   34   35 am   BACKBONE|DICT|INTERRES
    71   34  104 1    
    72   35   36 2    
    73   37   38 2    
    74   37   39 am   BACKBONE|DICT|INTERRES
    75   39   40 1    
    76   39  105 1    
    77   40   41 1    
    78   40   42 1    
    79   40  106 1    
    80   41  107 1    
    81   41  108 1    
    82   41  109 1    
    83   42   43 2    
    84   42   44 am   BACKBONE|DICT|INTERRES
    85   44   45 1    
    86   44  110 1    
    87   45   46 1    
    88   45   47 1    
    89   45  111 1    
    90   46  112 1    
    91   46  113 1    
    92   46  114 1    
    93   47   48 2    
    94   47   49 am   BACKBONE|DICT|INTERRES
    95   49   50 1    
    96   49  115 1    
    97   50   51 1    
    98   50   52 1    
    99   50  116 1    
   100   51  117 1    
   101   51  118 1    
   102   51  119 1    
   103   52   53 2    
   104   52   54 am   BACKBONE|DICT|INTERRES
   105   54   55 1    
   106   54  120 1    
   107   55   56 1    
   108   55   57 1    
   109   55  121 1    
   110   56  122 1    
   111   56  123 1    
   112   56  124 1    
   113   57   58 2    
   114   57   59 am   BACKBONE|DICT|INTERRES
   115   59   60 1    
   116   59  125 1    
   117   60   61 1    
   118   60   62 1    
   119   60  126 1    
   120   61  127 1    
   121   61  128 1    
   122   61  129 1    
   123   62   63 2    
   124   62   64 am   BACKBONE|DICT|INTERRES
   125   64   65 1    
   126   64  130 1    
   127   65   66 1    
   128   65   69 1    
   129   65  131 1    
   130   66   67 am   BACKBONE|DICT|INTERRES
   131   66   68 2    
   132   67  132 1    
   133   67  133 1    
   134   69   70 1    
   135   69  134 1    
   136   69  135 1    
   137   70   71 1    
   138   71  136 1    
   139   71  137 1    
@<TRIPOS>SUBSTRUCTURE
     1 UNK         1 GROUP             0       ****    0 ROOT    
