@<TRIPOS>MOLECULE
3R136
137   139    1
SMALL
USER_CHARGES


@<TRIPOS>ATOM
      1 CA         27.5613   20.9342    2.2810 C.3       0 UNK        -0.1979 
      2 C          28.0482   21.5599    0.9763 C.2       0 UNK         0.4864 
      3 O          27.6131   21.1260   -0.0890 O.2       0 UNK        -0.5359 
      4 N          28.9368   22.5661    0.9844 N.am      1 UNK        -0.4318 
      5 CA         29.5622   23.2558    2.1295 C.3       1 UNK         0.0824 
      6 C6         30.4206   22.3512    3.0639 C.3       12 UNK        -0.0944 
      7 S7         31.4827   21.1638    2.1642 S.3       12 UNK        -0.2672 
      8 C8         33.1001   22.0072    2.1295 C.3       12 UNK         0.0333 
      9 C9         33.0749   23.3615    1.4263 C.ar      12 UNK        -0.0807 
     10 C10        33.7217   24.4529    2.0135 C.ar      12 UNK        -0.0894 
     11 C11        33.7171   25.7045    1.3922 C.ar      12 UNK        -0.0804 
     12 C12        33.0409   25.8664    0.1795 C.ar      12 UNK        -0.0824 
     13 C13        32.3669   24.7908   -0.4080 C.ar      12 UNK        -0.0762 
     14 C14        32.4216   23.5326    0.1994 C.ar      12 UNK        -0.0782 
     15 C15        31.5645   24.9920   -1.6881 C.3       12 UNK         0.0230 
     16 S16        29.7630   25.0076   -1.3801 S.3       12 UNK        -0.2608 
     17 C17        29.5547   26.5190   -0.3790 C.3       12 UNK        -0.0989 
     18 CA         29.0356   27.7294   -1.1954 C.3       5 UNK         0.0716 
     19 N          27.6626   27.5222   -1.6709 N.am      5 UNK        -0.4135 
     20 C          27.0927   28.2302   -2.6566 C.2       4 UNK         0.5031 
     21 O          27.6962   29.0633   -3.3339 O.2       4 UNK        -0.5229 
     22 CA         25.5916   28.0038   -2.9228 C.3       4 UNK         0.0329 
     23 CB         25.3976   27.0108   -4.0800 C.3       4 UNK        -0.2001 
     24 N          24.8295   27.5395   -1.7588 N.am      4 UNK        -0.4303 
     25 C          24.6992   28.1886   -0.5925 C.2       3 UNK         0.5044 
     26 O          25.2128   29.2818   -0.3562 O.2       3 UNK        -0.5152 
     27 CA         23.8998   27.4851    0.5207 C.3       3 UNK         0.0319 
     28 CB         22.9091   26.4209   -0.0045 C.3       3 UNK        -0.2001 
     29 N          24.7699   26.9014    1.5509 N.am      3 UNK        -0.4354 
     30 C          25.7718   26.0307    1.3587 C.2       2 UNK         0.4964 
     31 O          26.1598   25.6582    0.2449 O.2       2 UNK        -0.5047 
     32 CA         26.4298   25.4503    2.6201 C.3       2 UNK         0.0288 
     33 CB         25.4284   24.6261    3.4544 C.3       2 UNK        -0.2113 
     34 N          27.5229   24.5963    2.1788 N.am      2 UNK        -0.4145 
     35 C          28.5669   24.1603    2.8899 C.2       1 UNK         0.5006 
     36 O          28.7479   24.4274    4.0789 O.2       1 UNK        -0.5103 
     37 C          29.1874   29.0105   -0.3442 C.2       5 UNK         0.5055 
     38 O          30.3230   29.4371   -0.1399 O.2       5 UNK        -0.5220 
     39 N          28.0734   29.5645    0.1628 N.am      6 UNK        -0.4450 
     40 CA         27.9602   30.4325    1.3427 C.3       6 UNK         0.0367 
     41 CB         28.9208   31.6430    1.2992 C.3       6 UNK        -0.1929 
     42 C          28.0969   29.6004    2.6338 C.2       6 UNK         0.5070 
     43 O          28.1548   28.3697    2.5747 O.2       6 UNK        -0.5237 
     44 N          28.0941   30.2764    3.7890 N.am      7 UNK        -0.4739 
     45 CA         28.2616   29.6535    5.1058 C.3       7 UNK         0.0276 
     46 CB         27.9023   30.6800    6.1930 C.3       7 UNK        -0.1927 
     47 C          29.6912   29.1234    5.3147 C.2       7 UNK         0.5013 
     48 O          30.6306   29.6510    4.7166 O.2       7 UNK        -0.5193 
     49 N          29.8334   28.1168    6.1884 N.am      8 UNK        -0.4253 
     50 CA         31.1130   27.5017    6.5584 C.3       8 UNK         0.0242 
     51 CB         30.8603   26.3712    7.5683 C.3       8 UNK        -0.2000 
     52 C          32.1140   28.5234    7.1280 C.2       8 UNK         0.4948 
     53 O          31.7089   29.4417    7.8456 O.2       8 UNK        -0.5275 
     54 N          33.3936   28.3635    6.7646 N.am      9 UNK        -0.4246 
     55 CA         34.5352   29.2570    7.0188 C.3       9 UNK         0.0261 
     56 CB         34.7800   29.4826    8.5240 C.3       9 UNK        -0.1959 
     57 C          34.4607   30.5906    6.2508 C.2       9 UNK         0.5033 
     58 O          35.4547   30.9804    5.6359 O.2       9 UNK        -0.5390 
     59 N          33.2878   31.2411    6.2462 N.am      10 UNK        -0.4215 
     60 CA         32.9803   32.4439    5.4606 C.3       10 UNK         0.0240 
     61 CB         31.5755   32.9491    5.8251 C.3       10 UNK        -0.1982 
     62 C          33.1027   32.2239    3.9402 C.2       10 UNK         0.4970 
     63 O          33.4386   33.1631    3.2181 O.2       10 UNK        -0.4916 
     64 N          32.8705   30.9821    3.4996 N.am      11 UNK        -0.4279 
     65 CA         33.1428   30.4576    2.1571 C.3       11 UNK         0.1003 
     66 C          34.6225   30.5628    1.6760 C.2       11 UNK         0.5709 
     67 N          35.6032   30.7625    2.5509 N.am      11 UNK        -0.7358 
     68 O          34.8833   30.4637    0.4795 O.2       11 UNK        -0.4999 
     69 C69        32.6007   29.0094    2.0183 C.3       12 UNK        -0.0954 
     70 S70        33.3721   27.8091    3.1634 S.3       12 UNK        -0.2268 
     71 C71        34.4508   26.8721    2.0360 C.3       12 UNK         0.0203 
     72 H72        26.6456   20.3690    2.1087 H         1 UNK         0.0888 
     73 H73        28.3084   20.2420    2.6679 H         1 UNK         0.0888 
     74 H74        27.3403   21.6776    3.0440 H         1 UNK         0.0888 
     75 H75        29.2190   22.9351    0.0860 H         1 UNK         0.3017 
     76 H76        30.2478   23.9717    1.6784 H         1 UNK         0.0873 
     77 H77        31.0510   22.9698    3.7056 H         1 UNK         0.0745 
     78 H78        29.7862   21.7816    3.7435 H         1 UNK         0.0745 
     79 H79        33.4550   22.1105    3.1561 H         1 UNK         0.0705 
     80 H80        33.8179   21.3641    1.6189 H         1 UNK         0.0705 
     81 H81        34.2359   24.3300    2.9571 H         1 UNK         0.1334 
     82 H82        33.0238   26.8344   -0.3010 H         1 UNK         0.1417 
     83 H83        31.9155   22.6951   -0.2615 H         1 UNK         0.1562 
     84 H84        31.7955   24.1882   -2.3886 H         1 UNK         0.0748 
     85 H85        31.8510   25.9204   -2.1848 H         1 UNK         0.0748 
     86 H86        30.5027   26.7557    0.1041 H         1 UNK         0.0940 
     87 H87        28.8697   26.3012    0.4407 H         1 UNK         0.0940 
     88 H88        29.6840   27.8534   -2.0655 H         1 UNK         0.0703 
     89 H89        27.1055   26.8400   -1.1658 H         1 UNK         0.3081 
     90 H90        25.1701   28.9654   -3.2229 H         1 UNK         0.0719 
     91 H91        25.7738   26.0185   -3.8271 H         1 UNK         0.0809 
     92 H92        24.3458   26.9142   -4.3498 H         1 UNK         0.0809 
     93 H93        25.9294   27.3428   -4.9730 H         1 UNK         0.0809 
     94 H94        24.4062   26.6258   -1.8337 H         1 UNK         0.2990 
     95 H95        23.3140   28.2640    1.0112 H         1 UNK         0.0690 
     96 H96        22.2700   26.0565    0.8000 H         1 UNK         0.0788 
     97 H97        23.4147   25.5552   -0.4340 H         1 UNK         0.0788 
     98 H98        22.2509   26.8367   -0.7689 H         1 UNK         0.0788 
     99 H99        24.5558   27.1741    2.5000 H         1 UNK         0.2993 
    100 H100       26.8307   26.2679    3.2209 H         1 UNK         0.0949 
    101 H101       25.9063   24.1872    4.3304 H         1 UNK         0.0767 
    102 H102       24.6074   25.2451    3.8174 H         1 UNK         0.0767 
    103 H103       24.9935   23.8137    2.8704 H         1 UNK         0.0767 
    104 H104       27.4697   24.3702    1.1917 H         1 UNK         0.3013 
    105 H105       27.1832   29.1697   -0.1231 H         1 UNK         0.3121 
    106 H106       26.9390   30.8159    1.3254 H         1 UNK         0.0774 
    107 H107       28.6170   32.4125    2.0090 H         1 UNK         0.0815 
    108 H108       29.9435   31.3601    1.5523 H         1 UNK         0.0815 
    109 H109       28.9341   32.1057    0.3125 H         1 UNK         0.0815 
    110 H110       28.0669   31.2848    3.7651 H         1 UNK         0.2987 
    111 H111       27.5691   28.8114    5.1747 H         1 UNK         0.0949 
    112 H112       26.8718   31.0211    6.0919 H         1 UNK         0.0806 
    113 H113       28.0022   30.2482    7.1898 H         1 UNK         0.0806 
    114 H114       28.5510   31.5554    6.1535 H         1 UNK         0.0806 
    115 H115       29.0146   27.7661    6.6626 H         1 UNK         0.3010 
    116 H116       31.5345   27.0684    5.6487 H         1 UNK         0.0829 
    117 H117       30.2010   25.6081    7.1534 H         1 UNK         0.0813 
    118 H118       31.7928   25.8762    7.8432 H         1 UNK         0.0813 
    119 H119       30.4075   26.7461    8.4873 H         1 UNK         0.0813 
    120 H120       33.6032   27.5890    6.1491 H         1 UNK         0.3038 
    121 H121       35.4055   28.7265    6.6288 H         1 UNK         0.0769 
    122 H122       33.9774   30.0523    8.9928 H         1 UNK         0.0811 
    123 H123       35.7040   30.0394    8.6849 H         1 UNK         0.0811 
    124 H124       34.8751   28.5363    9.0563 H         1 UNK         0.0811 
    125 H125       32.5281   30.8231    6.7784 H         1 UNK         0.3204 
    126 H126       33.7053   33.2112    5.7393 H         1 UNK         0.0748 
    127 H127       31.3404   33.8692    5.2882 H         1 UNK         0.0771 
    128 H128       30.8085   32.2182    5.5698 H         1 UNK         0.0771 
    129 H129       31.4936   33.1648    6.8905 H         1 UNK         0.0771 
    130 H130       32.4700   30.3124    4.1472 H         1 UNK         0.2980 
    131 H131       32.5669   31.0813    1.4714 H         1 UNK         0.0545 
    132 H132       35.4109   30.8437    3.5422 H         1 UNK         0.3459 
    133 H133       36.5512   30.8311    2.2180 H         1 UNK         0.3459 
    134 H134       32.7026   28.6673    0.9891 H         1 UNK         0.0616 
    135 H135       31.5281   29.0026    2.2177 H         1 UNK         0.0616 
    136 H136       35.3046   26.5013    2.6049 H         1 UNK         0.0634 
    137 H137       34.8644   27.5326    1.2726 H         1 UNK         0.0634 
@<TRIPOS>BOND
     1    1    2 1    
     2    1   72 1    
     3    1   73 1    
     4    1   74 1    
     5    2    3 2    
     6    2    4 am   BACKBONE|DICT|INTERRES
     7    4    5 1    
     8    4   75 1    
     9    5    6 1    
    10    5   35 1    
    11    5   76 1    
    12    6    7 1    
    13    6   77 1    
    14    6   78 1    
    15    7    8 1    
    16    8    9 1    
    17    8   79 1    
    18    8   80 1    
    19    9   10 ar   
    20    9   14 ar   
    21   10   11 ar   
    22   10   81 1    
    23   11   12 ar   
    24   11   71 1    
    25   12   13 ar   
    26   12   82 1    
    27   13   14 ar   
    28   13   15 1    
    29   14   83 1    
    30   15   16 1    
    31   15   84 1    
    32   15   85 1    
    33   16   17 1    
    34   17   18 1    
    35   17   86 1    
    36   17   87 1    
    37   18   19 1    
    38   18   37 1    
    39   18   88 1    
    40   19   20 am   BACKBONE|DICT|INTERRES
    41   19   89 1    
    42   20   21 2    
    43   20   22 1    
    44   22   23 1    
    45   22   24 1    
    46   22   90 1    
    47   23   91 1    
    48   23   92 1    
    49   23   93 1    
    50   24   25 am   BACKBONE|DICT|INTERRES
    51   24   94 1    
    52   25   26 2    
    53   25   27 1    
    54   27   28 1    
    55   27   29 1    
    56   27   95 1    
    57   28   96 1    
    58   28   97 1    
    59   28   98 1    
    60   29   30 am   BACKBONE|DICT|INTERRES
    61   29   99 1    
    62   30   31 2    
    63   30   32 1    
    64   32   33 1    
    65   32   34 1    
    66   32  100 1    
    67   33  101 1    
    68   33  102 1    
    69   33  103 1    
    70   34   35 am   BACKBONE|DICT|INTERRES
    71   34  104 1    
    72   35   36 2    
    73   37   38 2    
    74   37   39 am   BACKBONE|DICT|INTERRES
    75   39   40 1    
    76   39  105 1    
    77   40   41 1    
    78   40   42 1    
    79   40  106 1    
    80   41  107 1    
    81   41  108 1    
    82   41  109 1    
    83   42   43 2    
    84   42   44 am   BACKBONE|DICT|INTERRES
    85   44   45 1    
    86   44  110 1    
    87   45   46 1    
    88   45   47 1    
    89   45  111 1    
    90   46  112 1    
    91   46  113 1    
    92   46  114 1    
    93   47   48 2    
    94   47   49 am   BACKBONE|DICT|INTERRES
    95   49   50 1    
    96   49  115 1    
    97   50   51 1    
    98   50   52 1    
    99   50  116 1    
   100   51  117 1    
   101   51  118 1    
   102   51  119 1    
   103   52   53 2    
   104   52   54 am   BACKBONE|DICT|INTERRES
   105   54   55 1    
   106   54  120 1    
   107   55   56 1    
   108   55   57 1    
   109   55  121 1    
   110   56  122 1    
   111   56  123 1    
   112   56  124 1    
   113   57   58 2    
   114   57   59 am   BACKBONE|DICT|INTERRES
   115   59   60 1    
   116   59  125 1    
   117   60   61 1    
   118   60   62 1    
   119   60  126 1    
   120   61  127 1    
   121   61  128 1    
   122   61  129 1    
   123   62   63 2    
   124   62   64 am   BACKBONE|DICT|INTERRES
   125   64   65 1    
   126   64  130 1    
   127   65   66 1    
   128   65   69 1    
   129   65  131 1    
   130   66   67 am   BACKBONE|DICT|INTERRES
   131   66   68 2    
   132   67  132 1    
   133   67  133 1    
   134   69   70 1    
   135   69  134 1    
   136   69  135 1    
   137   70   71 1    
   138   71  136 1    
   139   71  137 1    
@<TRIPOS>SUBSTRUCTURE
     1 UNK         1 GROUP             0       ****    0 ROOT    
