@<TRIPOS>MOLECULE
3R136
137   139    1
SMALL
USER_CHARGES


@<TRIPOS>ATOM
      1 CA         31.3568   22.0084    2.8492 C.3       0 UNK        -0.1979 
      2 C          30.4624   21.7572    1.6446 C.2       0 UNK         0.4864 
      3 O          29.9715   20.6414    1.4661 O.2       0 UNK        -0.5359 
      4 N          30.2640   22.7853    0.8108 N.am      1 UNK        -0.4318 
      5 CA         29.4251   22.7634   -0.3911 C.3       1 UNK         0.0824 
      6 C6         29.5617   24.0532   -1.2462 C.3       12 UNK        -0.0944 
      7 S7         31.2765   24.6306   -1.4923 S.3       12 UNK        -0.2672 
      8 C8         31.2719   26.2010   -0.5632 C.3       12 UNK         0.0333 
      9 C9         31.3908   25.9796    0.9391 C.ar      12 UNK        -0.0807 
     10 C10        32.6469   26.0053    1.5534 C.ar      12 UNK        -0.0894 
     11 C11        32.7670   25.8176    2.9337 C.ar      12 UNK        -0.0804 
     12 C12        31.6194   25.5873    3.6975 C.ar      12 UNK        -0.0824 
     13 C13        30.3578   25.5560    3.0973 C.ar      12 UNK        -0.0762 
     14 C14        30.2504   25.7626    1.7193 C.ar      12 UNK        -0.0782 
     15 C15        29.1235   25.2596    3.9383 C.3       12 UNK         0.0230 
     16 S16        28.0202   26.7031    4.0835 S.3       12 UNK        -0.2608 
     17 C17        26.8493   26.4313    2.7078 C.3       12 UNK        -0.0989 
     18 CA         26.9899   27.4894    1.5869 C.3       5 UNK         0.0716 
     19 N          26.4645   26.9910    0.3148 N.am      5 UNK        -0.4135 
     20 C          26.6112   27.5976   -0.8711 C.2       4 UNK         0.5031 
     21 O          27.2687   28.6277   -1.0270 O.2       4 UNK        -0.5229 
     22 CA         25.9472   26.9500   -2.1032 C.3       4 UNK         0.0329 
     23 CB         27.0041   26.5697   -3.1546 C.3       4 UNK        -0.2001 
     24 N          25.1365   25.7645   -1.8085 N.am      4 UNK        -0.4303 
     25 C          23.9088   25.7594   -1.2774 C.2       3 UNK         0.5044 
     26 O          23.3210   26.7815   -0.9250 O.2       3 UNK        -0.5152 
     27 CA         23.2114   24.3943   -1.0942 C.3       3 UNK         0.0319 
     28 CB         22.3969   24.0277   -2.3503 C.3       3 UNK        -0.2001 
     29 N          24.0785   23.2761   -0.6792 N.am      3 UNK        -0.4354 
     30 C          25.0913   22.7030   -1.3455 C.2       2 UNK         0.4964 
     31 O          25.4878   23.0706   -2.4539 O.2       2 UNK        -0.5047 
     32 CA         25.7942   21.5227   -0.6570 C.3       2 UNK         0.0288 
     33 CB         25.3823   20.1916   -1.3066 C.3       2 UNK        -0.2113 
     34 N          27.2458   21.6820   -0.7515 N.am      2 UNK        -0.4145 
     35 C          27.9419   22.5636   -0.0228 C.2       1 UNK         0.5006 
     36 O          27.4457   23.2518    0.8739 O.2       1 UNK        -0.5103 
     37 C          26.3286   28.8261    1.9819 C.2       5 UNK         0.5055 
     38 O          25.1007   28.9004    2.0697 O.2       5 UNK        -0.5220 
     39 N          27.1629   29.8394    2.2290 N.am      6 UNK        -0.4450 
     40 CA         26.7892   31.1837    2.6589 C.3       6 UNK         0.0367 
     41 CB         26.1804   31.9822    1.4867 C.3       6 UNK        -0.1929 
     42 C          28.0531   31.8318    3.2346 C.2       6 UNK         0.5070 
     43 O          28.5969   32.7638    2.6410 O.2       6 UNK        -0.5237 
     44 N          28.5654   31.2406    4.3241 N.am      7 UNK        -0.4739 
     45 CA         29.8384   31.5172    5.0154 C.3       7 UNK         0.0276 
     46 CB         29.9205   32.9720    5.5168 C.3       7 UNK        -0.1927 
     47 C          31.0987   31.1348    4.2149 C.2       7 UNK         0.5013 
     48 O          32.0611   30.6628    4.8200 O.2       7 UNK        -0.5193 
     49 N          31.0645   31.3139    2.8870 N.am      8 UNK        -0.4253 
     50 CA         32.0839   30.9367    1.9033 C.3       8 UNK         0.0242 
     51 CB         32.1036   29.4013    1.7314 C.3       8 UNK        -0.2000 
     52 C          33.4567   31.5611    2.2227 C.2       8 UNK         0.4948 
     53 O          33.5192   32.7549    2.5259 O.2       8 UNK        -0.5275 
     54 N          34.5313   30.7636    2.1778 N.am      9 UNK        -0.4246 
     55 CA         35.9080   31.1676    2.4819 C.3       9 UNK         0.0261 
     56 CB         36.8713   30.2016    1.7657 C.3       9 UNK        -0.1959 
     57 C          36.1727   31.2516    4.0009 C.2       9 UNK         0.5033 
     58 O          37.1596   30.6902    4.4810 O.2       9 UNK        -0.5390 
     59 N          35.2760   31.9383    4.7259 N.am      10 UNK        -0.4215 
     60 CA         35.2157   32.0745    6.1876 C.3       10 UNK         0.0240 
     61 CB         36.3775   32.9499    6.7041 C.3       10 UNK        -0.1982 
     62 C          35.1221   30.7083    6.8981 C.2       10 UNK         0.4970 
     63 O          35.8437   30.4579    7.8659 O.2       10 UNK        -0.4916 
     64 N          34.2413   29.8443    6.3823 N.am      11 UNK        -0.4279 
     65 CA         34.0233   28.4706    6.8531 C.3       11 UNK         0.1003 
     66 C          33.1495   28.3705    8.1367 C.2       11 UNK         0.5709 
     67 N          32.4896   29.4343    8.5808 N.am      11 UNK        -0.7358 
     68 O          33.0787   27.3072    8.7486 O.2       11 UNK        -0.4999 
     69 C69        33.4532   27.5752    5.7224 C.3       12 UNK        -0.0954 
     70 S70        34.5384   27.4964    4.2550 S.3       12 UNK        -0.2268 
     71 C71        34.1374   25.8468    3.5966 C.3       12 UNK         0.0203 
     72 H72        31.9788   21.1363    3.0492 H         1 UNK         0.0888 
     73 H73        32.0181   22.8590    2.6856 H         1 UNK         0.0888 
     74 H74        30.7511   22.2078    3.7327 H         1 UNK         0.0888 
     75 H75        30.6998   23.6757    1.0100 H         1 UNK         0.3017 
     76 H76        29.7570   21.9157   -0.9944 H         1 UNK         0.0873 
     77 H77        28.9738   24.8707   -0.8262 H         1 UNK         0.0745 
     78 H78        29.1358   23.8749   -2.2353 H         1 UNK         0.0745 
     79 H79        30.3717   26.7730   -0.7948 H         1 UNK         0.0705 
     80 H80        32.1074   26.8103   -0.9114 H         1 UNK         0.0705 
     81 H81        33.5326   26.1776    0.9572 H         1 UNK         0.1334 
     82 H82        31.7100   25.4236    4.7620 H         1 UNK         0.1417 
     83 H83        29.2768   25.7288    1.2539 H         1 UNK         0.1562 
     84 H84        29.4185   24.9632    4.9460 H         1 UNK         0.0748 
     85 H85        28.5924   24.4011    3.5247 H         1 UNK         0.0748 
     86 H86        25.8333   26.4098    3.1080 H         1 UNK         0.0940 
     87 H87        27.0127   25.4337    2.3002 H         1 UNK         0.0940 
     88 H88        28.0531   27.6743    1.4211 H         1 UNK         0.0703 
     89 H89        25.8864   26.1657    0.3554 H         1 UNK         0.3081 
     90 H90        25.2933   27.7069   -2.5413 H         1 UNK         0.0719 
     91 H91        27.6041   27.4342   -3.4425 H         1 UNK         0.0809 
     92 H92        27.6881   25.8081   -2.7816 H         1 UNK         0.0809 
     93 H93        26.5391   26.1856   -4.0627 H         1 UNK         0.0809 
     94 H94        25.5077   24.8638   -2.1035 H         1 UNK         0.2990 
     95 H95        22.5007   24.5254   -0.2764 H         1 UNK         0.0690 
     96 H96        21.8267   23.1110   -2.1995 H         1 UNK         0.0788 
     97 H97        23.0338   23.8866   -3.2241 H         1 UNK         0.0788 
     98 H98        21.6834   24.8158   -2.5951 H         1 UNK         0.0788 
     99 H99        23.8663   22.9073    0.2382 H         1 UNK         0.2993 
    100 H100       25.5121   21.4959    0.3982 H         1 UNK         0.0949 
    101 H101       24.3048   20.0383   -1.2312 H         1 UNK         0.0767 
    102 H102       25.6425   20.1599   -2.3657 H         1 UNK         0.0767 
    103 H103       25.8645   19.3453   -0.8167 H         1 UNK         0.0767 
    104 H104       27.7072   21.1832   -1.4985 H         1 UNK         0.3013 
    105 H105       28.1574   29.6793    2.1406 H         1 UNK         0.3121 
    106 H106       26.0518   31.1164    3.4616 H         1 UNK         0.0774 
    107 H107       25.9525   33.0052    1.7885 H         1 UNK         0.0815 
    108 H108       26.8631   32.0344    0.6377 H         1 UNK         0.0815 
    109 H109       25.2497   31.5346    1.1384 H         1 UNK         0.0815 
    110 H110       28.0530   30.4514    4.6960 H         1 UNK         0.2987 
    111 H111       29.8359   30.8723    5.8961 H         1 UNK         0.0949 
    112 H112       30.8131   33.1207    6.1260 H         1 UNK         0.0806 
    113 H113       29.0600   33.2282    6.1348 H         1 UNK         0.0806 
    114 H114       29.9704   33.6877    4.6959 H         1 UNK         0.0806 
    115 H115       30.2564   31.8133    2.5260 H         1 UNK         0.3010 
    116 H116       31.7704   31.3727    0.9538 H         1 UNK         0.0829 
    117 H117       31.1133   29.0244    1.4758 H         1 UNK         0.0813 
    118 H118       32.7721   29.0929    0.9270 H         1 UNK         0.0813 
    119 H119       32.4152   28.8925    2.6441 H         1 UNK         0.0813 
    120 H120       34.3863   29.7825    1.9869 H         1 UNK         0.3038 
    121 H121       36.0776   32.1666    2.0745 H         1 UNK         0.0769 
    122 H122       37.9095   30.5019    1.9133 H         1 UNK         0.0811 
    123 H123       36.6921   30.1852    0.6905 H         1 UNK         0.0811 
    124 H124       36.7696   29.1818    2.1398 H         1 UNK         0.0811 
    125 H125       34.5045   32.3507    4.2078 H         1 UNK         0.3204 
    126 H126       34.2836   32.5969    6.4085 H         1 UNK         0.0748 
    127 H127       36.2765   33.1423    7.7730 H         1 UNK         0.0771 
    128 H128       37.3453   32.4716    6.5498 H         1 UNK         0.0771 
    129 H129       36.3980   33.9173    6.2023 H         1 UNK         0.0771 
    130 H130       33.6220   30.1490    5.6340 H         1 UNK         0.2980 
    131 H131       34.9971   28.0607    7.1277 H         1 UNK         0.0545 
    132 H132       31.9325   29.3580    9.4169 H         1 UNK         0.3459 
    133 H133       32.5371   30.3063    8.0794 H         1 UNK         0.3459 
    134 H134       33.3079   26.5602    6.0951 H         1 UNK         0.0616 
    135 H135       32.4721   27.9341    5.4055 H         1 UNK         0.0616 
    136 H136       34.9052   25.5666    2.8740 H         1 UNK         0.0634 
    137 H137       34.1902   25.1053    4.3951 H         1 UNK         0.0634 
@<TRIPOS>BOND
     1    1    2 1    
     2    1   72 1    
     3    1   73 1    
     4    1   74 1    
     5    2    3 2    
     6    2    4 am   BACKBONE|DICT|INTERRES
     7    4    5 1    
     8    4   75 1    
     9    5    6 1    
    10    5   35 1    
    11    5   76 1    
    12    6    7 1    
    13    6   77 1    
    14    6   78 1    
    15    7    8 1    
    16    8    9 1    
    17    8   79 1    
    18    8   80 1    
    19    9   10 ar   
    20    9   14 ar   
    21   10   11 ar   
    22   10   81 1    
    23   11   12 ar   
    24   11   71 1    
    25   12   13 ar   
    26   12   82 1    
    27   13   14 ar   
    28   13   15 1    
    29   14   83 1    
    30   15   16 1    
    31   15   84 1    
    32   15   85 1    
    33   16   17 1    
    34   17   18 1    
    35   17   86 1    
    36   17   87 1    
    37   18   19 1    
    38   18   37 1    
    39   18   88 1    
    40   19   20 am   BACKBONE|DICT|INTERRES
    41   19   89 1    
    42   20   21 2    
    43   20   22 1    
    44   22   23 1    
    45   22   24 1    
    46   22   90 1    
    47   23   91 1    
    48   23   92 1    
    49   23   93 1    
    50   24   25 am   BACKBONE|DICT|INTERRES
    51   24   94 1    
    52   25   26 2    
    53   25   27 1    
    54   27   28 1    
    55   27   29 1    
    56   27   95 1    
    57   28   96 1    
    58   28   97 1    
    59   28   98 1    
    60   29   30 am   BACKBONE|DICT|INTERRES
    61   29   99 1    
    62   30   31 2    
    63   30   32 1    
    64   32   33 1    
    65   32   34 1    
    66   32  100 1    
    67   33  101 1    
    68   33  102 1    
    69   33  103 1    
    70   34   35 am   BACKBONE|DICT|INTERRES
    71   34  104 1    
    72   35   36 2    
    73   37   38 2    
    74   37   39 am   BACKBONE|DICT|INTERRES
    75   39   40 1    
    76   39  105 1    
    77   40   41 1    
    78   40   42 1    
    79   40  106 1    
    80   41  107 1    
    81   41  108 1    
    82   41  109 1    
    83   42   43 2    
    84   42   44 am   BACKBONE|DICT|INTERRES
    85   44   45 1    
    86   44  110 1    
    87   45   46 1    
    88   45   47 1    
    89   45  111 1    
    90   46  112 1    
    91   46  113 1    
    92   46  114 1    
    93   47   48 2    
    94   47   49 am   BACKBONE|DICT|INTERRES
    95   49   50 1    
    96   49  115 1    
    97   50   51 1    
    98   50   52 1    
    99   50  116 1    
   100   51  117 1    
   101   51  118 1    
   102   51  119 1    
   103   52   53 2    
   104   52   54 am   BACKBONE|DICT|INTERRES
   105   54   55 1    
   106   54  120 1    
   107   55   56 1    
   108   55   57 1    
   109   55  121 1    
   110   56  122 1    
   111   56  123 1    
   112   56  124 1    
   113   57   58 2    
   114   57   59 am   BACKBONE|DICT|INTERRES
   115   59   60 1    
   116   59  125 1    
   117   60   61 1    
   118   60   62 1    
   119   60  126 1    
   120   61  127 1    
   121   61  128 1    
   122   61  129 1    
   123   62   63 2    
   124   62   64 am   BACKBONE|DICT|INTERRES
   125   64   65 1    
   126   64  130 1    
   127   65   66 1    
   128   65   69 1    
   129   65  131 1    
   130   66   67 am   BACKBONE|DICT|INTERRES
   131   66   68 2    
   132   67  132 1    
   133   67  133 1    
   134   69   70 1    
   135   69  134 1    
   136   69  135 1    
   137   70   71 1    
   138   71  136 1    
   139   71  137 1    
@<TRIPOS>SUBSTRUCTURE
     1 UNK         1 GROUP             0       ****    0 ROOT    
