@<TRIPOS>MOLECULE
3R136
137   139    1
SMALL
USER_CHARGES


@<TRIPOS>ATOM
      1 CA         26.7482   18.3968   -1.6303 C.3       0 UNK        -0.1979 
      2 C          27.7623   19.4803   -1.9677 C.2       0 UNK         0.4864 
      3 O          28.4056   19.4103   -3.0164 O.2       0 UNK        -0.5359 
      4 N          27.9152   20.4760   -1.0848 N.am      1 UNK        -0.4318 
      5 CA         28.7910   21.6353   -1.2785 C.3       1 UNK         0.0824 
      6 C6         29.0605   22.3599    0.0642 C.3       12 UNK        -0.0944 
      7 S7         30.5626   23.4010    0.0172 S.3       12 UNK        -0.2672 
      8 C8         31.5350   22.7442    1.4118 C.3       12 UNK         0.0333 
      9 C9         31.1773   23.4027    2.7408 C.ar      12 UNK        -0.0807 
     10 C10        32.0843   24.2695    3.3616 C.ar      12 UNK        -0.0894 
     11 C11        31.7956   24.8221    4.6135 C.ar      12 UNK        -0.0804 
     12 C12        30.5791   24.5268    5.2349 C.ar      12 UNK        -0.0824 
     13 C13        29.6581   23.6759    4.6196 C.ar      12 UNK        -0.0762 
     14 C14        29.9661   23.1115    3.3783 C.ar      12 UNK        -0.0782 
     15 C15        28.3441   23.3357    5.3066 C.3       12 UNK         0.0230 
     16 S16        26.9697   24.3494    4.6782 S.3       12 UNK        -0.2608 
     17 C17        27.2784   25.9621    5.4800 C.3       12 UNK        -0.0989 
     18 CA         27.8218   27.0343    4.5014 C.3       5 UNK         0.0716 
     19 N          26.9522   27.1877    3.3271 N.am      5 UNK        -0.4135 
     20 C          27.0869   28.0846    2.3421 C.2       4 UNK         0.5031 
     21 O          27.9030   29.0067    2.3408 O.2       4 UNK        -0.5229 
     22 CA         26.1758   27.9153    1.1171 C.3       4 UNK         0.0329 
     23 CB         25.1951   29.0926    0.9927 C.3       4 UNK        -0.2001 
     24 N          27.0170   27.8564   -0.0778 N.am      4 UNK        -0.4303 
     25 C          27.7541   26.7915   -0.4146 C.2       3 UNK         0.5044 
     26 O          27.6256   25.6783    0.0989 O.2       3 UNK        -0.5152 
     27 CA         28.8640   27.0339   -1.4464 C.3       3 UNK         0.0319 
     28 CB         30.1899   27.3476   -0.7297 C.3       3 UNK        -0.2001 
     29 N          29.0519   25.8460   -2.2732 N.am      3 UNK        -0.4354 
     30 C          28.4187   25.6064   -3.4287 C.2       2 UNK         0.4964 
     31 O          27.6518   26.4043   -3.9694 O.2       2 UNK        -0.5047 
     32 CA         28.6896   24.2490   -4.1033 C.3       2 UNK         0.0288 
     33 CB         29.8006   24.3838   -5.1577 C.3       2 UNK        -0.2113 
     34 N          29.0596   23.2053   -3.1432 N.am      2 UNK        -0.4145 
     35 C          28.1906   22.5974   -2.3243 C.2       1 UNK         0.5006 
     36 O          26.9715   22.7909   -2.3514 O.2       1 UNK        -0.5103 
     37 C          28.0569   28.3679    5.2416 C.2       5 UNK         0.5055 
     38 O          27.1020   28.9385    5.7733 O.2       5 UNK        -0.5220 
     39 N          29.3074   28.8507    5.2225 N.am      6 UNK        -0.4450 
     40 CA         29.8324   30.1031    5.7899 C.3       6 UNK         0.0367 
     41 CB         29.6480   30.1499    7.3183 C.3       6 UNK        -0.1929 
     42 C          29.3247   31.3979    5.1246 C.2       6 UNK         0.5070 
     43 O          30.0686   32.3787    5.0931 O.2       6 UNK        -0.5237 
     44 N          28.0943   31.3941    4.5951 N.am      7 UNK        -0.4739 
     45 CA         27.4900   32.4894    3.8309 C.3       7 UNK         0.0276 
     46 CB         26.0082   32.1723    3.5771 C.3       7 UNK        -0.1927 
     47 C          28.2246   32.7692    2.5077 C.2       7 UNK         0.5013 
     48 O          28.3404   33.9303    2.1130 O.2       7 UNK        -0.5193 
     49 N          28.7341   31.7074    1.8758 N.am      8 UNK        -0.4253 
     50 CA         29.6878   31.7423    0.7746 C.3       8 UNK         0.0242 
     51 CB         29.0439   31.1091   -0.4683 C.3       8 UNK        -0.2000 
     52 C          30.9374   30.9636    1.2092 C.2       8 UNK         0.4948 
     53 O          30.8621   30.1303    2.1142 O.2       8 UNK        -0.5275 
     54 N          32.0769   31.2701    0.5738 N.am      9 UNK        -0.4246 
     55 CA         33.4123   30.6911    0.8059 C.3       9 UNK         0.0261 
     56 CB         33.4192   29.1771    0.5003 C.3       9 UNK        -0.1959 
     57 C          34.0353   30.9923    2.1882 C.2       9 UNK         0.5033 
     58 O          35.1401   30.5165    2.4560 O.2       9 UNK        -0.5390 
     59 N          33.3447   31.7745    3.0317 N.am      10 UNK        -0.4215 
     60 CA         33.6934   32.2522    4.3787 C.3       10 UNK         0.0240 
     61 CB         34.9560   33.1357    4.3488 C.3       10 UNK        -0.1982 
     62 C          33.8122   31.1629    5.4621 C.2       10 UNK         0.4970 
     63 O          33.3726   31.4012    6.5878 O.2       10 UNK        -0.4916 
     64 N          34.3969   30.0098    5.1169 N.am      11 UNK        -0.4279 
     65 CA         34.7005   28.8753    6.0036 C.3       11 UNK         0.1003 
     66 C          35.7291   29.2368    7.1223 C.2       11 UNK         0.5709 
     67 N          35.8512   28.4314    8.1699 N.am      11 UNK        -0.7358 
     68 O          36.4698   30.2148    7.0270 O.2       11 UNK        -0.4999 
     69 C69        33.4160   28.1623    6.5235 C.3       12 UNK        -0.0954 
     70 S70        32.4023   27.4614    5.1764 S.3       12 UNK        -0.2268 
     71 C71        32.8117   25.6974    5.3283 C.3       12 UNK         0.0203 
     72 H72        27.2389   17.4250   -1.5831 H         1 UNK         0.0888 
     73 H73        26.2615   18.5776   -0.6720 H         1 UNK         0.0888 
     74 H74        25.9771   18.3529   -2.3990 H         1 UNK         0.0888 
     75 H75        27.3319   20.4995   -0.2608 H         1 UNK         0.3017 
     76 H76        29.7415   21.2555   -1.6610 H         1 UNK         0.0873 
     77 H77        28.2094   22.9722    0.3703 H         1 UNK         0.0745 
     78 H78        29.1838   21.6115    0.8467 H         1 UNK         0.0745 
     79 H79        31.4110   21.6630    1.4857 H         1 UNK         0.0705 
     80 H80        32.5909   22.9047    1.1886 H         1 UNK         0.0705 
     81 H81        33.0286   24.4932    2.8841 H         1 UNK         0.1334 
     82 H82        30.3577   24.9515    6.2046 H         1 UNK         0.1417 
     83 H83        29.2578   22.4396    2.9171 H         1 UNK         0.1562 
     84 H84        28.4274   23.4511    6.3885 H         1 UNK         0.0748 
     85 H85        28.1076   22.2844    5.1355 H         1 UNK         0.0748 
     86 H86        27.9642   25.8267    6.3182 H         1 UNK         0.0940 
     87 H87        26.3357   26.2940    5.9203 H         1 UNK         0.0940 
     88 H88        28.7835   26.6817    4.1222 H         1 UNK         0.0703 
     89 H89        26.2540   26.4658    3.2252 H         1 UNK         0.3081 
     90 H90        25.6035   26.9890    1.2044 H         1 UNK         0.0719 
     91 H91        25.7166   30.0432    0.8719 H         1 UNK         0.0809 
     92 H92        24.5305   28.9652    0.1380 H         1 UNK         0.0809 
     93 H93        24.5683   29.1736    1.8818 H         1 UNK         0.0809 
     94 H94        27.2028   28.7380   -0.5314 H         1 UNK         0.2990 
     95 H95        28.5953   27.8867   -2.0738 H         1 UNK         0.0690 
     96 H96        30.0909   28.2047   -0.0633 H         1 UNK         0.0788 
     97 H97        30.9810   27.5795   -1.4427 H         1 UNK         0.0788 
     98 H98        30.5255   26.5097   -0.1171 H         1 UNK         0.0788 
     99 H99        29.6021   25.1055   -1.8616 H         1 UNK         0.2993 
    100 H100       27.7711   23.9453   -4.6111 H         1 UNK         0.0949 
    101 H101       29.9585   23.4454   -5.6898 H         1 UNK         0.0767 
    102 H102       29.5410   25.1373   -5.9028 H         1 UNK         0.0767 
    103 H103       30.7500   24.6814   -4.7103 H         1 UNK         0.0767 
    104 H104       30.0432   22.9898   -3.0604 H         1 UNK         0.3013 
    105 H105       29.9951   28.3288    4.6939 H         1 UNK         0.3121 
    106 H106       30.9052   30.0750    5.5950 H         1 UNK         0.0774 
    107 H107       30.1456   31.0245    7.7395 H         1 UNK         0.0815 
    108 H108       28.5968   30.2068    7.6018 H         1 UNK         0.0815 
    109 H109       30.0808   29.2709    7.7958 H         1 UNK         0.0815 
    110 H110       27.5463   30.5476    4.7080 H         1 UNK         0.2987 
    111 H111       27.5514   33.3948    4.4384 H         1 UNK         0.0949 
    112 H112       25.8868   31.2437    3.0194 H         1 UNK         0.0806 
    113 H113       25.4582   32.0743    4.5132 H         1 UNK         0.0806 
    114 H114       25.5304   32.9663    3.0015 H         1 UNK         0.0806 
    115 H115       28.6011   30.7827    2.2849 H         1 UNK         0.3010 
    116 H116       29.9790   32.7703    0.5485 H         1 UNK         0.0829 
    117 H117       28.1748   31.6806   -0.7948 H         1 UNK         0.0813 
    118 H118       29.7436   31.0727   -1.3042 H         1 UNK         0.0813 
    119 H119       28.7159   30.0911   -0.2677 H         1 UNK         0.0813 
    120 H120       32.0410   31.9827   -0.1432 H         1 UNK         0.3038 
    121 H121       34.0703   31.1711    0.0800 H         1 UNK         0.0769 
    122 H122       32.8326   28.6118    1.2255 H         1 UNK         0.0811 
    123 H123       34.4333   28.7765    0.5257 H         1 UNK         0.0811 
    124 H124       33.0167   28.9704   -0.4910 H         1 UNK         0.0811 
    125 H125       32.4187   32.0372    2.7256 H         1 UNK         0.3204 
    126 H126       32.8595   32.8887    4.6797 H         1 UNK         0.0748 
    127 H127       35.1526   33.5650    5.3322 H         1 UNK         0.0771 
    128 H128       35.8429   32.5703    4.0612 H         1 UNK         0.0771 
    129 H129       34.8441   33.9645    3.6496 H         1 UNK         0.0771 
    130 H130       34.7653   29.9502    4.1711 H         1 UNK         0.2980 
    131 H131       35.2343   28.1635    5.3734 H         1 UNK         0.0545 
    132 H132       35.2796   27.6076    8.2666 H         1 UNK         0.3459 
    133 H133       36.5315   28.6551    8.8793 H         1 UNK         0.3459 
    134 H134       33.6650   27.3583    7.2155 H         1 UNK         0.0616 
    135 H135       32.7949   28.8541    7.0938 H         1 UNK         0.0616 
    136 H136       32.8386   25.4106    6.3805 H         1 UNK         0.0634 
    137 H137       33.8157   25.5281    4.9363 H         1 UNK         0.0634 
@<TRIPOS>BOND
     1    1    2 1    
     2    1   72 1    
     3    1   73 1    
     4    1   74 1    
     5    2    3 2    
     6    2    4 am   BACKBONE|DICT|INTERRES
     7    4    5 1    
     8    4   75 1    
     9    5    6 1    
    10    5   35 1    
    11    5   76 1    
    12    6    7 1    
    13    6   77 1    
    14    6   78 1    
    15    7    8 1    
    16    8    9 1    
    17    8   79 1    
    18    8   80 1    
    19    9   10 ar   
    20    9   14 ar   
    21   10   11 ar   
    22   10   81 1    
    23   11   12 ar   
    24   11   71 1    
    25   12   13 ar   
    26   12   82 1    
    27   13   14 ar   
    28   13   15 1    
    29   14   83 1    
    30   15   16 1    
    31   15   84 1    
    32   15   85 1    
    33   16   17 1    
    34   17   18 1    
    35   17   86 1    
    36   17   87 1    
    37   18   19 1    
    38   18   37 1    
    39   18   88 1    
    40   19   20 am   BACKBONE|DICT|INTERRES
    41   19   89 1    
    42   20   21 2    
    43   20   22 1    
    44   22   23 1    
    45   22   24 1    
    46   22   90 1    
    47   23   91 1    
    48   23   92 1    
    49   23   93 1    
    50   24   25 am   BACKBONE|DICT|INTERRES
    51   24   94 1    
    52   25   26 2    
    53   25   27 1    
    54   27   28 1    
    55   27   29 1    
    56   27   95 1    
    57   28   96 1    
    58   28   97 1    
    59   28   98 1    
    60   29   30 am   BACKBONE|DICT|INTERRES
    61   29   99 1    
    62   30   31 2    
    63   30   32 1    
    64   32   33 1    
    65   32   34 1    
    66   32  100 1    
    67   33  101 1    
    68   33  102 1    
    69   33  103 1    
    70   34   35 am   BACKBONE|DICT|INTERRES
    71   34  104 1    
    72   35   36 2    
    73   37   38 2    
    74   37   39 am   BACKBONE|DICT|INTERRES
    75   39   40 1    
    76   39  105 1    
    77   40   41 1    
    78   40   42 1    
    79   40  106 1    
    80   41  107 1    
    81   41  108 1    
    82   41  109 1    
    83   42   43 2    
    84   42   44 am   BACKBONE|DICT|INTERRES
    85   44   45 1    
    86   44  110 1    
    87   45   46 1    
    88   45   47 1    
    89   45  111 1    
    90   46  112 1    
    91   46  113 1    
    92   46  114 1    
    93   47   48 2    
    94   47   49 am   BACKBONE|DICT|INTERRES
    95   49   50 1    
    96   49  115 1    
    97   50   51 1    
    98   50   52 1    
    99   50  116 1    
   100   51  117 1    
   101   51  118 1    
   102   51  119 1    
   103   52   53 2    
   104   52   54 am   BACKBONE|DICT|INTERRES
   105   54   55 1    
   106   54  120 1    
   107   55   56 1    
   108   55   57 1    
   109   55  121 1    
   110   56  122 1    
   111   56  123 1    
   112   56  124 1    
   113   57   58 2    
   114   57   59 am   BACKBONE|DICT|INTERRES
   115   59   60 1    
   116   59  125 1    
   117   60   61 1    
   118   60   62 1    
   119   60  126 1    
   120   61  127 1    
   121   61  128 1    
   122   61  129 1    
   123   62   63 2    
   124   62   64 am   BACKBONE|DICT|INTERRES
   125   64   65 1    
   126   64  130 1    
   127   65   66 1    
   128   65   69 1    
   129   65  131 1    
   130   66   67 am   BACKBONE|DICT|INTERRES
   131   66   68 2    
   132   67  132 1    
   133   67  133 1    
   134   69   70 1    
   135   69  134 1    
   136   69  135 1    
   137   70   71 1    
   138   71  136 1    
   139   71  137 1    
@<TRIPOS>SUBSTRUCTURE
     1 UNK         1 GROUP             0       ****    0 ROOT    
