@<TRIPOS>MOLECULE
3R136
137   139    1
SMALL
USER_CHARGES


@<TRIPOS>ATOM
      1 CA         26.0274   17.9537    1.0820 C.3       0 UNK        -0.1979 
      2 C          26.4182   19.4162    1.2314 C.2       0 UNK         0.4864 
      3 O          25.5517   20.2633    1.4574 O.2       0 UNK        -0.5359 
      4 N          27.7175   19.7248    1.1197 N.am      1 UNK        -0.4318 
      5 CA         28.2891   21.0717    1.2381 C.3       1 UNK         0.0824 
      6 C6         29.6246   21.1719    0.4547 C.3       12 UNK        -0.0944 
      7 S7         30.0496   22.8927    0.0259 S.3       12 UNK        -0.2672 
      8 C8         31.8296   22.9121    0.4004 C.3       12 UNK         0.0333 
      9 C9         32.4114   24.3142    0.2854 C.ar      12 UNK        -0.0807 
     10 C10        32.9430   24.9494    1.4097 C.ar      12 UNK        -0.0894 
     11 C11        33.4839   26.2406    1.3218 C.ar      12 UNK        -0.0804 
     12 C12        33.4814   26.8881    0.0792 C.ar      12 UNK        -0.0824 
     13 C13        32.9695   26.2561   -1.0599 C.ar      12 UNK        -0.0762 
     14 C14        32.4405   24.9675   -0.9481 C.ar      12 UNK        -0.0782 
     15 C15        33.0412   26.9257   -2.4268 C.3       12 UNK         0.0230 
     16 S16        31.3993   27.1286   -3.1966 S.3       12 UNK        -0.2608 
     17 C17        30.9183   28.8153   -2.6986 C.3       12 UNK        -0.0989 
     18 CA         29.7080   28.8326   -1.7339 C.3       5 UNK         0.0716 
     19 N          30.0418   28.2244   -0.4416 N.am      5 UNK        -0.4135 
     20 C          29.2638   28.1835    0.6490 C.2       4 UNK         0.5031 
     21 O          28.1070   28.6119    0.7004 O.2       4 UNK        -0.5229 
     22 CA         29.9436   27.6625    1.9239 C.3       4 UNK         0.0329 
     23 CB         30.7376   28.8129    2.5627 C.3       4 UNK        -0.2001 
     24 N          29.0011   27.1377    2.9139 N.am      4 UNK        -0.4303 
     25 C          28.1888   26.0903    2.7314 C.2       3 UNK         0.5044 
     26 O          28.1477   25.4071    1.7052 O.2       3 UNK        -0.5152 
     27 CA         27.2458   25.7570    3.8921 C.3       3 UNK         0.0319 
     28 CB         25.8841   26.4456    3.7023 C.3       3 UNK        -0.2001 
     29 N          27.0581   24.3114    3.9252 N.am      3 UNK        -0.4354 
     30 C          27.2055   23.5281    4.9994 C.2       2 UNK         0.4964 
     31 O          27.4283   23.9552    6.1335 O.2       2 UNK        -0.5047 
     32 CA         27.0791   22.0088    4.7835 C.3       2 UNK         0.0288 
     33 CB         25.7232   21.5029    5.3032 C.3       2 UNK        -0.2113 
     34 N          27.2286   21.6050    3.3822 N.am      2 UNK        -0.4145 
     35 C          28.3901   21.5038    2.7216 C.2       1 UNK         0.5006 
     36 O          29.4875   21.7026    3.2470 O.2       1 UNK        -0.5103 
     37 C          29.1985   30.2768   -1.5520 C.2       5 UNK         0.5055 
     38 O          29.9711   31.1397   -1.1295 O.2       5 UNK        -0.5220 
     39 N          27.8980   30.4873   -1.8087 N.am      6 UNK        -0.4450 
     40 CA         27.1500   31.7444   -1.6488 C.3       6 UNK         0.0367 
     41 CB         27.6032   32.7680   -2.7120 C.3       6 UNK        -0.1929 
     42 C          27.1895   32.3388   -0.2217 C.2       6 UNK         0.5070 
     43 O          26.9578   33.5384   -0.0644 O.2       6 UNK        -0.5237 
     44 N          27.5071   31.5064    0.7848 N.am      7 UNK        -0.4739 
     45 CA         27.7966   31.8660    2.1800 C.3       7 UNK         0.0276 
     46 CB         26.5208   32.3589    2.8950 C.3       7 UNK        -0.1927 
     47 C          28.9841   32.8457    2.3321 C.2       7 UNK         0.5013 
     48 O          29.0344   33.5944    3.3090 O.2       7 UNK        -0.5193 
     49 N          29.9202   32.8339    1.3700 N.am      8 UNK        -0.4253 
     50 CA         31.0432   33.7743    1.2806 C.3       8 UNK         0.0242 
     51 CB         31.4153   33.9543   -0.2021 C.3       8 UNK        -0.2000 
     52 C          32.2769   33.3687    2.1109 C.2       8 UNK         0.4948 
     53 O          33.3031   34.0454    2.0208 O.2       8 UNK        -0.5275 
     54 N          32.1820   32.2857    2.8890 N.am      9 UNK        -0.4246 
     55 CA         33.2419   31.7510    3.7384 C.3       9 UNK         0.0261 
     56 CB         34.1636   30.8378    2.9068 C.3       9 UNK        -0.1959 
     57 C          32.6138   31.0341    4.9418 C.2       9 UNK         0.5033 
     58 O          31.3904   30.8930    5.0029 O.2       9 UNK        -0.5390 
     59 N          33.4632   30.6169    5.8882 N.am      10 UNK        -0.4215 
     60 CA         33.0748   30.0770    7.1958 C.3       10 UNK         0.0240 
     61 CB         34.2960   30.1388    8.1307 C.3       10 UNK        -0.1982 
     62 C          32.4780   28.6551    7.1890 C.2       10 UNK         0.4970 
     63 O          31.9758   28.2324    8.2319 O.2       10 UNK        -0.4916 
     64 N          32.5676   27.9293    6.0654 N.am      11 UNK        -0.4279 
     65 CA         32.0682   26.5501    5.9224 C.3       11 UNK         0.1003 
     66 C          30.5372   26.4100    6.1542 C.2       11 UNK         0.5709 
     67 N          30.0933   25.2573    6.6367 N.am      11 UNK        -0.7358 
     68 O          29.7538   27.3017    5.8319 O.2       11 UNK        -0.4999 
     69 C69        32.4368   25.9128    4.5572 C.3       12 UNK        -0.0954 
     70 S70        34.1967   26.0508    4.0968 S.3       12 UNK        -0.2268 
     71 C71        34.0871   26.9792    2.5239 C.3       12 UNK         0.0203 
     72 H72        25.3248   17.8362    0.2575 H         1 UNK         0.0888 
     73 H73        26.8909   17.3187    0.8847 H         1 UNK         0.0888 
     74 H74        25.5464   17.5993    1.9933 H         1 UNK         0.0888 
     75 H75        28.3856   18.9821    0.9680 H         1 UNK         0.3017 
     76 H76        27.5876   21.7622    0.7633 H         1 UNK         0.0873 
     77 H77        30.4400   20.6917    0.9990 H         1 UNK         0.0745 
     78 H78        29.5430   20.6321   -0.4904 H         1 UNK         0.0745 
     79 H79        31.9851   22.5141    1.4046 H         1 UNK         0.0705 
     80 H80        32.3516   22.2441   -0.2860 H         1 UNK         0.0705 
     81 H81        32.9344   24.4175    2.3484 H         1 UNK         0.1334 
     82 H82        33.9060   27.8797   -0.0048 H         1 UNK         0.1417 
     83 H83        32.0469   24.4704   -1.8249 H         1 UNK         0.1562 
     84 H84        33.6477   26.2976   -3.0810 H         1 UNK         0.0748 
     85 H85        33.5581   27.8849   -2.3751 H         1 UNK         0.0748 
     86 H86        30.6792   29.3574   -3.6161 H         1 UNK         0.0940 
     87 H87        31.7694   29.3398   -2.2596 H         1 UNK         0.0940 
     88 H88        28.9071   28.2350   -2.1741 H         1 UNK         0.0703 
     89 H89        30.9718   27.8371   -0.3809 H         1 UNK         0.3081 
     90 H90        30.6241   26.8537    1.6512 H         1 UNK         0.0719 
     91 H91        30.0883   29.6460    2.8305 H         1 UNK         0.0809 
     92 H92        31.2497   28.5022    3.4708 H         1 UNK         0.0809 
     93 H93        31.4902   29.1988    1.8753 H         1 UNK         0.0809 
     94 H94        28.9832   27.6059    3.8119 H         1 UNK         0.2990 
     95 H95        27.6903   26.1056    4.8247 H         1 UNK         0.0690 
     96 H96        25.9970   27.5302    3.6702 H         1 UNK         0.0788 
     97 H97        25.2058   26.2128    4.5233 H         1 UNK         0.0788 
     98 H98        25.4034   26.1395    2.7721 H         1 UNK         0.0788 
     99 H99        26.9489   23.8783    3.0183 H         1 UNK         0.2993 
    100 H100       27.8700   21.5327    5.3676 H         1 UNK         0.0949 
    101 H101       25.6470   20.4183    5.2218 H         1 UNK         0.0767 
    102 H102       25.5875   21.7581    6.3553 H         1 UNK         0.0767 
    103 H103       24.8907   21.9407    4.7507 H         1 UNK         0.0767 
    104 H104       26.3830   21.3551    2.8762 H         1 UNK         0.3013 
    105 H105       27.3413   29.6925   -2.0932 H         1 UNK         0.3121 
    106 H106       26.1036   31.5045   -1.8431 H         1 UNK         0.0774 
    107 H107       26.9646   33.6522   -2.7056 H         1 UNK         0.0815 
    108 H108       28.6256   33.1049   -2.5367 H         1 UNK         0.0815 
    109 H109       27.5561   32.3462   -3.7159 H         1 UNK         0.0815 
    110 H110       27.6600   30.5262    0.5578 H         1 UNK         0.2987 
    111 H111       28.1046   30.9420    2.6704 H         1 UNK         0.0949 
    112 H112       26.1851   33.3214    2.5080 H         1 UNK         0.0806 
    113 H113       25.7029   31.6473    2.7823 H         1 UNK         0.0806 
    114 H114       26.6944   32.4827    3.9647 H         1 UNK         0.0806 
    115 H115       29.8166   32.1897    0.5904 H         1 UNK         0.3010 
    116 H116       30.7142   34.7445    1.6591 H         1 UNK         0.0829 
    117 H117       30.5485   34.2412   -0.7980 H         1 UNK         0.0813 
    118 H118       32.1664   34.7352   -0.3280 H         1 UNK         0.0813 
    119 H119       31.8251   33.0373   -0.6273 H         1 UNK         0.0813 
    120 H120       31.2834   31.8357    3.0057 H         1 UNK         0.3038 
    121 H121       33.8300   32.5790    4.1406 H         1 UNK         0.0769 
    122 H122       34.8820   30.3006    3.5266 H         1 UNK         0.0811 
    123 H123       34.7390   31.4218    2.1882 H         1 UNK         0.0811 
    124 H124       33.5952   30.1031    2.3410 H         1 UNK         0.0811 
    125 H125       34.4522   30.7671    5.7469 H         1 UNK         0.3204 
    126 H126       32.3045   30.7331    7.6071 H         1 UNK         0.0748 
    127 H127       34.0415   29.7961    9.1348 H         1 UNK         0.0771 
    128 H128       35.1120   29.5110    7.7702 H         1 UNK         0.0771 
    129 H129       34.6718   31.1577    8.2281 H         1 UNK         0.0771 
    130 H130       32.9971   28.3401    5.2527 H         1 UNK         0.2980 
    131 H131       32.5687   25.9696    6.7000 H         1 UNK         0.0545 
    132 H132       29.0969   25.1013    6.7234 H         1 UNK         0.3459 
    133 H133       30.7313   24.5181    6.8847 H         1 UNK         0.3459 
    134 H134       32.1958   24.8484    4.5767 H         1 UNK         0.0616 
    135 H135       31.8244   26.3318    3.7602 H         1 UNK         0.0616 
    136 H136       35.0944   27.3054    2.2613 H         1 UNK         0.0634 
    137 H137       33.5086   27.8818    2.7064 H         1 UNK         0.0634 
@<TRIPOS>BOND
     1    1    2 1    
     2    1   72 1    
     3    1   73 1    
     4    1   74 1    
     5    2    3 2    
     6    2    4 am   BACKBONE|DICT|INTERRES
     7    4    5 1    
     8    4   75 1    
     9    5    6 1    
    10    5   35 1    
    11    5   76 1    
    12    6    7 1    
    13    6   77 1    
    14    6   78 1    
    15    7    8 1    
    16    8    9 1    
    17    8   79 1    
    18    8   80 1    
    19    9   10 ar   
    20    9   14 ar   
    21   10   11 ar   
    22   10   81 1    
    23   11   12 ar   
    24   11   71 1    
    25   12   13 ar   
    26   12   82 1    
    27   13   14 ar   
    28   13   15 1    
    29   14   83 1    
    30   15   16 1    
    31   15   84 1    
    32   15   85 1    
    33   16   17 1    
    34   17   18 1    
    35   17   86 1    
    36   17   87 1    
    37   18   19 1    
    38   18   37 1    
    39   18   88 1    
    40   19   20 am   BACKBONE|DICT|INTERRES
    41   19   89 1    
    42   20   21 2    
    43   20   22 1    
    44   22   23 1    
    45   22   24 1    
    46   22   90 1    
    47   23   91 1    
    48   23   92 1    
    49   23   93 1    
    50   24   25 am   BACKBONE|DICT|INTERRES
    51   24   94 1    
    52   25   26 2    
    53   25   27 1    
    54   27   28 1    
    55   27   29 1    
    56   27   95 1    
    57   28   96 1    
    58   28   97 1    
    59   28   98 1    
    60   29   30 am   BACKBONE|DICT|INTERRES
    61   29   99 1    
    62   30   31 2    
    63   30   32 1    
    64   32   33 1    
    65   32   34 1    
    66   32  100 1    
    67   33  101 1    
    68   33  102 1    
    69   33  103 1    
    70   34   35 am   BACKBONE|DICT|INTERRES
    71   34  104 1    
    72   35   36 2    
    73   37   38 2    
    74   37   39 am   BACKBONE|DICT|INTERRES
    75   39   40 1    
    76   39  105 1    
    77   40   41 1    
    78   40   42 1    
    79   40  106 1    
    80   41  107 1    
    81   41  108 1    
    82   41  109 1    
    83   42   43 2    
    84   42   44 am   BACKBONE|DICT|INTERRES
    85   44   45 1    
    86   44  110 1    
    87   45   46 1    
    88   45   47 1    
    89   45  111 1    
    90   46  112 1    
    91   46  113 1    
    92   46  114 1    
    93   47   48 2    
    94   47   49 am   BACKBONE|DICT|INTERRES
    95   49   50 1    
    96   49  115 1    
    97   50   51 1    
    98   50   52 1    
    99   50  116 1    
   100   51  117 1    
   101   51  118 1    
   102   51  119 1    
   103   52   53 2    
   104   52   54 am   BACKBONE|DICT|INTERRES
   105   54   55 1    
   106   54  120 1    
   107   55   56 1    
   108   55   57 1    
   109   55  121 1    
   110   56  122 1    
   111   56  123 1    
   112   56  124 1    
   113   57   58 2    
   114   57   59 am   BACKBONE|DICT|INTERRES
   115   59   60 1    
   116   59  125 1    
   117   60   61 1    
   118   60   62 1    
   119   60  126 1    
   120   61  127 1    
   121   61  128 1    
   122   61  129 1    
   123   62   63 2    
   124   62   64 am   BACKBONE|DICT|INTERRES
   125   64   65 1    
   126   64  130 1    
   127   65   66 1    
   128   65   69 1    
   129   65  131 1    
   130   66   67 am   BACKBONE|DICT|INTERRES
   131   66   68 2    
   132   67  132 1    
   133   67  133 1    
   134   69   70 1    
   135   69  134 1    
   136   69  135 1    
   137   70   71 1    
   138   71  136 1    
   139   71  137 1    
@<TRIPOS>SUBSTRUCTURE
     1 UNK         1 GROUP             0       ****    0 ROOT    
