@<TRIPOS>MOLECULE
3R136
137   139    1
SMALL
USER_CHARGES


@<TRIPOS>ATOM
      1 CA         27.2477   17.9637    1.8020 C.3       0 UNK        -0.1979 
      2 C          27.1928   19.3537    1.1865 C.2       0 UNK         0.4864 
      3 O          26.4321   19.5778    0.2426 O.2       0 UNK        -0.5359 
      4 N          27.9842   20.2960    1.7159 N.am      1 UNK        -0.4318 
      5 CA         28.0890   21.6864    1.2550 C.3       1 UNK         0.0824 
      6 C6         29.4290   22.3361    1.6891 C.3       12 UNK        -0.0944 
      7 S7         30.8876   21.4760    1.0188 S.3       12 UNK        -0.2672 
      8 C8         32.2210   22.2752    1.9702 C.3       12 UNK         0.0333 
      9 C9         32.3100   23.7717    1.6971 C.ar      12 UNK        -0.0807 
     10 C10        32.0137   24.6963    2.7047 C.ar      12 UNK        -0.0894 
     11 C11        32.1056   26.0694    2.4563 C.ar      12 UNK        -0.0804 
     12 C12        32.4921   26.5146    1.1887 C.ar      12 UNK        -0.0824 
     13 C13        32.7834   25.6017    0.1721 C.ar      12 UNK        -0.0762 
     14 C14        32.6968   24.2315    0.4345 C.ar      12 UNK        -0.0782 
     15 C15        33.2042   26.0869   -1.2068 C.3       12 UNK         0.0230 
     16 S16        31.7779   26.2747   -2.3235 S.3       12 UNK        -0.2608 
     17 C17        31.2460   27.9863   -1.9747 C.3       12 UNK        -0.0989 
     18 CA         29.7012   28.1322   -1.8895 C.3       5 UNK         0.0716 
     19 N          29.1049   27.2898   -0.8395 N.am      5 UNK        -0.4135 
     20 C          29.1817   27.4811    0.4869 C.2       4 UNK         0.5031 
     21 O          29.8363   28.3877    1.0013 O.2       4 UNK        -0.5229 
     22 CA         28.3193   26.5660    1.3819 C.3       4 UNK         0.0329 
     23 CB         27.9418   27.2477    2.7117 C.3       4 UNK        -0.2001 
     24 N          27.1038   26.0476    0.7355 N.am      4 UNK        -0.4303 
     25 C          26.1388   26.7454    0.1115 C.2       3 UNK         0.5044 
     26 O          26.1710   27.9673   -0.0456 O.2       3 UNK        -0.5152 
     27 CA         24.9664   25.9480   -0.4908 C.3       3 UNK         0.0319 
     28 CB         25.0984   25.8883   -2.0218 C.3       3 UNK        -0.2001 
     29 N          24.8688   24.5810    0.0310 N.am      3 UNK        -0.4354 
     30 C          24.2881   24.2529    1.1940 C.2       2 UNK         0.4964 
     31 O          23.7088   25.0581    1.9235 O.2       2 UNK        -0.5047 
     32 CA         24.3926   22.7793    1.6288 C.3       2 UNK         0.0288 
     33 CB         23.2324   21.9577    1.0438 C.3       2 UNK        -0.2113 
     34 N          25.6669   22.1406    1.2761 N.am      2 UNK        -0.4145 
     35 C          26.8743   22.5262    1.7123 C.2       1 UNK         0.5006 
     36 O          27.0436   23.5031    2.4436 O.2       1 UNK        -0.5103 
     37 C          29.2660   29.6211   -1.8060 C.2       5 UNK         0.5055 
     38 O          29.9750   30.4858   -2.3243 O.2       5 UNK        -0.5220 
     39 N          28.1342   29.9018   -1.1342 N.am      6 UNK        -0.4450 
     40 CA         27.6587   31.2248   -0.7077 C.3       6 UNK         0.0367 
     41 CB         27.2246   32.0726   -1.9223 C.3       6 UNK        -0.1929 
     42 C          28.6491   31.9686    0.2206 C.2       6 UNK         0.5070 
     43 O          28.6450   33.2004    0.2509 O.2       6 UNK        -0.5237 
     44 N          29.4772   31.2198    0.9620 N.am      7 UNK        -0.4739 
     45 CA         30.5495   31.7230    1.8197 C.3       7 UNK         0.0276 
     46 CB         31.8885   31.6196    1.0631 C.3       7 UNK        -0.1927 
     47 C          30.5680   30.9624    3.1547 C.2       7 UNK         0.5013 
     48 O          31.6413   30.5946    3.6361 O.2       7 UNK        -0.5193 
     49 N          29.3786   30.7368    3.7342 N.am      8 UNK        -0.4253 
     50 CA         29.1787   30.0741    5.0281 C.3       8 UNK         0.0242 
     51 CB         27.6780   30.0369    5.3582 C.3       8 UNK        -0.2000 
     52 C          29.9629   30.7630    6.1574 C.2       8 UNK         0.4948 
     53 O          29.9408   31.9931    6.2471 O.2       8 UNK        -0.5275 
     54 N          30.6805   29.9622    6.9575 N.am      9 UNK        -0.4246 
     55 CA         31.6419   30.3388    8.0072 C.3       9 UNK         0.0261 
     56 CB         30.9822   31.1726    9.1232 C.3       9 UNK        -0.1959 
     57 C          32.9198   31.0215    7.4793 C.2       9 UNK         0.5033 
     58 O          34.0097   30.6927    7.9506 O.2       9 UNK        -0.5390 
     59 N          32.7820   31.9209    6.4952 N.am      10 UNK        -0.4215 
     60 CA         33.8679   32.6199    5.7992 C.3       10 UNK         0.0240 
     61 CB         33.2702   33.6291    4.8054 C.3       10 UNK        -0.1982 
     62 C          34.8598   31.6793    5.0899 C.2       10 UNK         0.4970 
     63 O          36.0364   32.0261    4.9781 O.2       10 UNK        -0.4916 
     64 N          34.3829   30.5041    4.6593 N.am      11 UNK        -0.4279 
     65 CA         35.1963   29.3904    4.1529 C.3       11 UNK         0.1003 
     66 C          36.2013   28.7709    5.1730 C.2       11 UNK         0.5709 
     67 N          36.0931   29.0339    6.4715 N.am      11 UNK        -0.7358 
     68 O          37.1080   28.0450    4.7715 O.2       11 UNK        -0.4999 
     69 C69        34.3125   28.3084    3.4773 C.3       12 UNK        -0.0954 
     70 S70        33.1807   27.4418    4.6246 S.3       12 UNK        -0.2268 
     71 C71        31.7622   27.0750    3.5468 C.3       12 UNK         0.0203 
     72 H72        26.2669   17.6846    2.1861 H         1 UNK         0.0888 
     73 H73        27.5402   17.2322    1.0492 H         1 UNK         0.0888 
     74 H74        27.9622   17.9094    2.6232 H         1 UNK         0.0888 
     75 H75        28.5802   20.0565    2.4955 H         1 UNK         0.3017 
     76 H76        28.0688   21.6843    0.1628 H         1 UNK         0.0873 
     77 H77        29.5073   22.3692    2.7778 H         1 UNK         0.0745 
     78 H78        29.4785   23.3702    1.3438 H         1 UNK         0.0745 
     79 H79        32.0682   22.0809    3.0330 H         1 UNK         0.0705 
     80 H80        33.1708   21.8073    1.7077 H         1 UNK         0.0705 
     81 H81        31.7121   24.3501    3.6838 H         1 UNK         0.1334 
     82 H82        32.5511   27.5759    0.9928 H         1 UNK         0.1417 
     83 H83        32.9208   23.5187   -0.3478 H         1 UNK         0.1562 
     84 H84        33.8983   25.3708   -1.6493 H         1 UNK         0.0748 
     85 H85        33.7526   27.0275   -1.1346 H         1 UNK         0.0748 
     86 H86        31.6508   28.6076   -2.7758 H         1 UNK         0.0940 
     87 H87        31.7073   28.3473   -1.0549 H         1 UNK         0.0940 
     88 H88        29.2854   27.7697   -2.8307 H         1 UNK         0.0703 
     89 H89        28.5410   26.5212   -1.1699 H         1 UNK         0.3081 
     90 H90        28.9427   25.7027    1.6172 H         1 UNK         0.0719 
     91 H91        28.8306   27.5348    3.2709 H         1 UNK         0.0809 
     92 H92        27.3541   28.1509    2.5452 H         1 UNK         0.0809 
     93 H93        27.3621   26.5796    3.3487 H         1 UNK         0.0809 
     94 H94        26.9504   25.0560    0.8610 H         1 UNK         0.2990 
     95 H95        24.0480   26.4881   -0.2504 H         1 UNK         0.0690 
     96 H96        24.2421   25.3870   -2.4734 H         1 UNK         0.0788 
     97 H97        25.9998   25.3585   -2.3322 H         1 UNK         0.0788 
     98 H98        25.1454   26.8908   -2.4500 H         1 UNK         0.0788 
     99 H99        25.2952   23.8479   -0.5174 H         1 UNK         0.2993 
    100 H100       24.3097   22.7593    2.7177 H         1 UNK         0.0949 
    101 H101       22.2694   22.3962    1.3101 H         1 UNK         0.0767 
    102 H102       23.2799   21.9092   -0.0449 H         1 UNK         0.0767 
    103 H103       23.2384   20.9363    1.4254 H         1 UNK         0.0767 
    104 H104       25.6272   21.2940    0.7141 H         1 UNK         0.3013 
    105 H105       27.5936   29.1232   -0.7645 H         1 UNK         0.3121 
    106 H106       26.7694   31.0387   -0.1037 H         1 UNK         0.0774 
    107 H107       28.0756   32.3634   -2.5387 H         1 UNK         0.0815 
    108 H108       26.7285   32.9896   -1.6023 H         1 UNK         0.0815 
    109 H109       26.5215   31.5299   -2.5540 H         1 UNK         0.0815 
    110 H110       29.4313   30.2035    0.8947 H         1 UNK         0.2987 
    111 H111       30.3737   32.7717    2.0680 H         1 UNK         0.0949 
    112 H112       31.8595   32.1783    0.1276 H         1 UNK         0.0806 
    113 H113       32.7103   32.0218    1.6568 H         1 UNK         0.0806 
    114 H114       32.1310   30.5826    0.8265 H         1 UNK         0.0806 
    115 H115       28.5545   31.0893    3.2711 H         1 UNK         0.3010 
    116 H116       29.5409   29.0498    4.9265 H         1 UNK         0.0829 
    117 H117       27.4989   29.5209    6.3024 H         1 UNK         0.0813 
    118 H118       27.2626   31.0412    5.4527 H         1 UNK         0.0813 
    119 H119       27.1108   29.5104    4.5912 H         1 UNK         0.0813 
    120 H120       30.6414   28.9694    6.7706 H         1 UNK         0.3038 
    121 H121       31.9618   29.3966    8.4555 H         1 UNK         0.0769 
    122 H122       30.6646   32.1544    8.7714 H         1 UNK         0.0811 
    123 H123       31.6794   31.3369    9.9459 H         1 UNK         0.0811 
    124 H124       30.1098   30.6650    9.5345 H         1 UNK         0.0811 
    125 H125       31.8320   32.1186    6.1894 H         1 UNK         0.3204 
    126 H126       34.4306   33.1739    6.5531 H         1 UNK         0.0748 
    127 H127       34.0562   34.1884    4.2961 H         1 UNK         0.0771 
    128 H128       32.6730   33.1348    4.0389 H         1 UNK         0.0771 
    129 H129       32.6325   34.3544    5.3111 H         1 UNK         0.0771 
    130 H130       33.3820   30.3419    4.6921 H         1 UNK         0.2980 
    131 H131       35.8199   29.8161    3.3647 H         1 UNK         0.0545 
    132 H132       36.7564   28.6270    7.1109 H         1 UNK         0.3459 
    133 H133       35.3532   29.6293    6.8260 H         1 UNK         0.3459 
    134 H134       33.7223   28.7792    2.6901 H         1 UNK         0.0616 
    135 H135       34.9330   27.5621    2.9782 H         1 UNK         0.0616 
    136 H136       31.3934   28.0016    3.1080 H         1 UNK         0.0634 
    137 H137       30.9503   26.6854    4.1617 H         1 UNK         0.0634 
@<TRIPOS>BOND
     1    1    2 1    
     2    1   72 1    
     3    1   73 1    
     4    1   74 1    
     5    2    3 2    
     6    2    4 am   BACKBONE|DICT|INTERRES
     7    4    5 1    
     8    4   75 1    
     9    5    6 1    
    10    5   35 1    
    11    5   76 1    
    12    6    7 1    
    13    6   77 1    
    14    6   78 1    
    15    7    8 1    
    16    8    9 1    
    17    8   79 1    
    18    8   80 1    
    19    9   10 ar   
    20    9   14 ar   
    21   10   11 ar   
    22   10   81 1    
    23   11   12 ar   
    24   11   71 1    
    25   12   13 ar   
    26   12   82 1    
    27   13   14 ar   
    28   13   15 1    
    29   14   83 1    
    30   15   16 1    
    31   15   84 1    
    32   15   85 1    
    33   16   17 1    
    34   17   18 1    
    35   17   86 1    
    36   17   87 1    
    37   18   19 1    
    38   18   37 1    
    39   18   88 1    
    40   19   20 am   BACKBONE|DICT|INTERRES
    41   19   89 1    
    42   20   21 2    
    43   20   22 1    
    44   22   23 1    
    45   22   24 1    
    46   22   90 1    
    47   23   91 1    
    48   23   92 1    
    49   23   93 1    
    50   24   25 am   BACKBONE|DICT|INTERRES
    51   24   94 1    
    52   25   26 2    
    53   25   27 1    
    54   27   28 1    
    55   27   29 1    
    56   27   95 1    
    57   28   96 1    
    58   28   97 1    
    59   28   98 1    
    60   29   30 am   BACKBONE|DICT|INTERRES
    61   29   99 1    
    62   30   31 2    
    63   30   32 1    
    64   32   33 1    
    65   32   34 1    
    66   32  100 1    
    67   33  101 1    
    68   33  102 1    
    69   33  103 1    
    70   34   35 am   BACKBONE|DICT|INTERRES
    71   34  104 1    
    72   35   36 2    
    73   37   38 2    
    74   37   39 am   BACKBONE|DICT|INTERRES
    75   39   40 1    
    76   39  105 1    
    77   40   41 1    
    78   40   42 1    
    79   40  106 1    
    80   41  107 1    
    81   41  108 1    
    82   41  109 1    
    83   42   43 2    
    84   42   44 am   BACKBONE|DICT|INTERRES
    85   44   45 1    
    86   44  110 1    
    87   45   46 1    
    88   45   47 1    
    89   45  111 1    
    90   46  112 1    
    91   46  113 1    
    92   46  114 1    
    93   47   48 2    
    94   47   49 am   BACKBONE|DICT|INTERRES
    95   49   50 1    
    96   49  115 1    
    97   50   51 1    
    98   50   52 1    
    99   50  116 1    
   100   51  117 1    
   101   51  118 1    
   102   51  119 1    
   103   52   53 2    
   104   52   54 am   BACKBONE|DICT|INTERRES
   105   54   55 1    
   106   54  120 1    
   107   55   56 1    
   108   55   57 1    
   109   55  121 1    
   110   56  122 1    
   111   56  123 1    
   112   56  124 1    
   113   57   58 2    
   114   57   59 am   BACKBONE|DICT|INTERRES
   115   59   60 1    
   116   59  125 1    
   117   60   61 1    
   118   60   62 1    
   119   60  126 1    
   120   61  127 1    
   121   61  128 1    
   122   61  129 1    
   123   62   63 2    
   124   62   64 am   BACKBONE|DICT|INTERRES
   125   64   65 1    
   126   64  130 1    
   127   65   66 1    
   128   65   69 1    
   129   65  131 1    
   130   66   67 am   BACKBONE|DICT|INTERRES
   131   66   68 2    
   132   67  132 1    
   133   67  133 1    
   134   69   70 1    
   135   69  134 1    
   136   69  135 1    
   137   70   71 1    
   138   71  136 1    
   139   71  137 1    
@<TRIPOS>SUBSTRUCTURE
     1 UNK         1 GROUP             0       ****    0 ROOT    
