@<TRIPOS>MOLECULE
3R136
137   139    1
SMALL
USER_CHARGES


@<TRIPOS>ATOM
      1 CA         31.1927   19.4353   -2.4889 C.3       0 UNK        -0.1979 
      2 C          30.1803   20.4714   -2.0241 C.2       0 UNK         0.4864 
      3 O          29.9062   21.4297   -2.7493 O.2       0 UNK        -0.5359 
      4 N          29.6180   20.2904   -0.8215 N.am      1 UNK        -0.4318 
      5 CA         28.6076   21.1687   -0.2279 C.3       1 UNK         0.0824 
      6 C6         28.6066   21.0619    1.3212 C.3       12 UNK        -0.0944 
      7 S7         27.6230   22.3797    2.1200 S.3       12 UNK        -0.2672 
      8 C8         28.7488   23.0008    3.4168 C.3       12 UNK         0.0333 
      9 C9         29.9007   23.9018    2.9602 C.ar      12 UNK        -0.0807 
     10 C10        30.7673   24.3902    3.9431 C.ar      12 UNK        -0.0894 
     11 C11        31.8573   25.1971    3.6074 C.ar      12 UNK        -0.0804 
     12 C12        32.0866   25.5170    2.2681 C.ar      12 UNK        -0.0824 
     13 C13        31.2221   25.0553    1.2706 C.ar      12 UNK        -0.0762 
     14 C14        30.1292   24.2561    1.6222 C.ar      12 UNK        -0.0782 
     15 C15        31.4902   25.3966   -0.1907 C.3       12 UNK         0.0230 
     16 S16        30.3610   26.6691   -0.8468 S.3       12 UNK        -0.2608 
     17 C17        30.6659   28.0787    0.2747 C.3       12 UNK        -0.0989 
     18 CA         29.3949   28.5527    1.0281 C.3       5 UNK         0.0716 
     19 N          28.6251   27.4419    1.6021 N.am      5 UNK        -0.4135 
     20 C          27.3169   27.4908    1.8794 C.2       4 UNK         0.5031 
     21 O          26.6232   28.5024    1.7570 O.2       4 UNK        -0.5229 
     22 CA         26.6731   26.1903    2.3818 C.3       4 UNK         0.0329 
     23 CB         25.9930   26.3922    3.7460 C.3       4 UNK        -0.2001 
     24 N          25.7002   25.6790    1.4151 N.am      4 UNK        -0.4303 
     25 C          26.0327   25.1500    0.2314 C.2       3 UNK         0.5044 
     26 O          27.1956   25.0280   -0.1659 O.2       3 UNK        -0.5152 
     27 CA         24.8844   24.6611   -0.6602 C.3       3 UNK         0.0319 
     28 CB         24.2980   25.8063   -1.5035 C.3       3 UNK        -0.2001 
     29 N          25.4474   23.6369   -1.5281 N.am      3 UNK        -0.4354 
     30 C          24.8175   22.5898   -2.0698 C.2       2 UNK         0.4964 
     31 O          23.5987   22.4195   -2.0302 O.2       2 UNK        -0.5047 
     32 CA         25.7188   21.5358   -2.7424 C.3       2 UNK         0.0288 
     33 CB         25.9187   21.8605   -4.2315 C.3       2 UNK        -0.2113 
     34 N          27.0270   21.4400   -2.0838 N.am      2 UNK        -0.4145 
     35 C          27.2241   20.9122   -0.8674 C.2       1 UNK         0.5006 
     36 O          26.3716   20.2537   -0.2671 O.2       1 UNK        -0.5103 
     37 C          29.7731   29.6242    2.0714 C.2       5 UNK         0.5055 
     38 O          30.3044   30.6654    1.6823 O.2       5 UNK        -0.5220 
     39 N          29.5287   29.3543    3.3643 N.am      6 UNK        -0.4450 
     40 CA         29.9451   30.1355    4.5368 C.3       6 UNK         0.0367 
     41 CB         29.3359   29.5095    5.8014 C.3       6 UNK        -0.1929 
     42 C          29.6296   31.6399    4.4921 C.2       6 UNK         0.5070 
     43 O          30.3832   32.4206    5.0702 O.2       6 UNK        -0.5237 
     44 N          28.5676   32.0298    3.7738 N.am      7 UNK        -0.4739 
     45 CA         28.1998   33.4254    3.5109 C.3       7 UNK         0.0276 
     46 CB         26.8662   33.4573    2.7473 C.3       7 UNK        -0.1927 
     47 C          29.2749   34.2289    2.7494 C.2       7 UNK         0.5013 
     48 O          29.3247   35.4499    2.9047 O.2       7 UNK        -0.5193 
     49 N          30.1097   33.5397    1.9593 N.am      8 UNK        -0.4253 
     50 CA         31.2512   34.1082    1.2411 C.3       8 UNK         0.0242 
     51 CB         31.0684   33.8703   -0.2672 C.3       8 UNK        -0.2000 
     52 C          32.5789   33.5005    1.7198 C.2       8 UNK         0.4948 
     53 O          33.5624   34.2305    1.8459 O.2       8 UNK        -0.5275 
     54 N          32.5978   32.1823    1.9626 N.am      9 UNK        -0.4246 
     55 CA         33.7989   31.4111    2.2924 C.3       9 UNK         0.0261 
     56 CB         33.5594   29.9350    1.9288 C.3       9 UNK        -0.1959 
     57 C          34.2412   31.5169    3.7603 C.2       9 UNK         0.5033 
     58 O          35.3660   31.1139    4.0610 O.2       9 UNK        -0.5390 
     59 N          33.3582   31.9851    4.6565 N.am      10 UNK        -0.4215 
     60 CA         33.4966   32.0744    6.1205 C.3       10 UNK         0.0240 
     61 CB         34.6796   32.9734    6.5317 C.3       10 UNK        -0.1982 
     62 C          33.5505   30.7145    6.8453 C.2       10 UNK         0.4970 
     63 O          32.9260   30.5782    7.8975 O.2       10 UNK        -0.4916 
     64 N          34.2831   29.7472    6.2790 N.am      11 UNK        -0.4279 
     65 CA         34.4890   28.3749    6.7757 C.3       11 UNK         0.1003 
     66 C          35.3053   28.2821    8.1025 C.2       11 UNK         0.5709 
     67 N          36.0247   29.3210    8.5112 N.am      11 UNK        -0.7358 
     68 O          35.3208   27.2425    8.7579 O.2       11 UNK        -0.4999 
     69 C69        33.1794   27.5336    6.8119 C.3       12 UNK        -0.0954 
     70 S70        32.3586   27.4032    5.1858 S.3       12 UNK        -0.2268 
     71 C71        32.7920   25.7071    4.6934 C.3       12 UNK         0.0203 
     72 H72        31.3427   18.6502   -1.7480 H         1 UNK         0.0888 
     73 H73        30.8541   18.9692   -3.4138 H         1 UNK         0.0888 
     74 H74        32.1547   19.9107   -2.6787 H         1 UNK         0.0888 
     75 H75        29.8576   19.4705   -0.2818 H         1 UNK         0.3017 
     76 H76        28.8810   22.1957   -0.4771 H         1 UNK         0.0873 
     77 H77        29.6315   21.1275    1.6902 H         1 UNK         0.0745 
     78 H78        28.2319   20.0911    1.6509 H         1 UNK         0.0745 
     79 H79        29.1556   22.1472    3.9611 H         1 UNK         0.0705 
     80 H80        28.1448   23.5584    4.1340 H         1 UNK         0.0705 
     81 H81        30.5957   24.1344    4.9802 H         1 UNK         0.1334 
     82 H82        32.9378   26.1311    2.0064 H         1 UNK         0.1417 
     83 H83        29.4659   23.9179    0.8410 H         1 UNK         0.1562 
     84 H84        31.3878   24.4939   -0.7952 H         1 UNK         0.0748 
     85 H85        32.5193   25.7338   -0.3246 H         1 UNK         0.0748 
     86 H86        31.0641   28.8972   -0.3285 H         1 UNK         0.0940 
     87 H87        31.4612   27.8256    0.9753 H         1 UNK         0.0940 
     88 H88        28.7551   29.0501    0.2958 H         1 UNK         0.0703 
     89 H89        29.1133   26.5592    1.6732 H         1 UNK         0.3081 
     90 H90        27.4531   25.4385    2.5081 H         1 UNK         0.0719 
     91 H91        25.1755   27.1122    3.6896 H         1 UNK         0.0809 
     92 H92        25.5896   25.4546    4.1291 H         1 UNK         0.0809 
     93 H93        26.7041   26.7634    4.4852 H         1 UNK         0.0809 
     94 H94        24.7244   25.7758    1.6559 H         1 UNK         0.2990 
     95 H95        24.1080   24.2202   -0.0314 H         1 UNK         0.0690 
     96 H96        23.4964   25.4511   -2.1514 H         1 UNK         0.0788 
     97 H97        25.0578   26.2700   -2.1342 H         1 UNK         0.0788 
     98 H98        23.8795   26.5868   -0.8671 H         1 UNK         0.0788 
     99 H99        26.4582   23.6837   -1.5787 H         1 UNK         0.2993 
    100 H100       25.2175   20.5685   -2.6631 H         1 UNK         0.0949 
    101 H101       26.4238   22.8169   -4.3734 H         1 UNK         0.0767 
    102 H102       26.5105   21.0913   -4.7284 H         1 UNK         0.0767 
    103 H103       24.9603   21.9170   -4.7496 H         1 UNK         0.0767 
    104 H104       27.8208   21.8660   -2.5501 H         1 UNK         0.3013 
    105 H105       29.0896   28.4687    3.5652 H         1 UNK         0.3121 
    106 H106       31.0306   30.0445    4.6025 H         1 UNK         0.0774 
    107 H107       29.6789   30.0303    6.6969 H         1 UNK         0.0815 
    108 H108       28.2463   29.5585    5.7909 H         1 UNK         0.0815 
    109 H109       29.6236   28.4641    5.9115 H         1 UNK         0.0815 
    110 H110       28.0103   31.3172    3.3242 H         1 UNK         0.2987 
    111 H111       28.0565   33.9155    4.4764 H         1 UNK         0.0949 
    112 H112       26.5495   34.4839    2.5573 H         1 UNK         0.0806 
    113 H113       26.9421   32.9556    1.7817 H         1 UNK         0.0806 
    114 H114       26.0706   32.9754    3.3159 H         1 UNK         0.0806 
    115 H115       29.9925   32.5318    1.9007 H         1 UNK         0.3010 
    116 H116       31.3105   35.1858    1.4091 H         1 UNK         0.0829 
    117 H117       30.1666   34.3588   -0.6365 H         1 UNK         0.0813 
    118 H118       31.9100   34.2738   -0.8320 H         1 UNK         0.0813 
    119 H119       30.9936   32.8079   -0.5038 H         1 UNK         0.0813 
    120 H120       31.7456   31.6420    1.8185 H         1 UNK         0.3038 
    121 H121       34.6233   31.7805    1.6785 H         1 UNK         0.0769 
    122 H122       34.4655   29.3449    2.0731 H         1 UNK         0.0811 
    123 H123       33.2665   29.8246    0.8848 H         1 UNK         0.0811 
    124 H124       32.7823   29.4871    2.5491 H         1 UNK         0.0811 
    125 H125       32.4460   32.2627    4.3140 H         1 UNK         0.3204 
    126 H126       32.5890   32.5688    6.4690 H         1 UNK         0.0748 
    127 H127       34.6955   33.1223    7.6122 H         1 UNK         0.0771 
    128 H128       35.6418   32.5442    6.2516 H         1 UNK         0.0771 
    129 H129       34.6056   33.9583    6.0705 H         1 UNK         0.0771 
    130 H130       34.7931   29.9962    5.4353 H         1 UNK         0.2980 
    131 H131       35.1399   27.9069    6.0367 H         1 UNK         0.0545 
    132 H132       36.5584   29.2470    9.3629 H         1 UNK         0.3459 
    133 H133       36.0374   30.1750    7.9779 H         1 UNK         0.3459 
    134 H134       32.4672   27.9664    7.5155 H         1 UNK         0.0616 
    135 H135       33.3795   26.5272    7.1817 H         1 UNK         0.0616 
    136 H136       32.7428   25.0445    5.5586 H         1 UNK         0.0634 
    137 H137       33.8257   25.6859    4.3452 H         1 UNK         0.0634 
@<TRIPOS>BOND
     1    1    2 1    
     2    1   72 1    
     3    1   73 1    
     4    1   74 1    
     5    2    3 2    
     6    2    4 am   BACKBONE|DICT|INTERRES
     7    4    5 1    
     8    4   75 1    
     9    5    6 1    
    10    5   35 1    
    11    5   76 1    
    12    6    7 1    
    13    6   77 1    
    14    6   78 1    
    15    7    8 1    
    16    8    9 1    
    17    8   79 1    
    18    8   80 1    
    19    9   10 ar   
    20    9   14 ar   
    21   10   11 ar   
    22   10   81 1    
    23   11   12 ar   
    24   11   71 1    
    25   12   13 ar   
    26   12   82 1    
    27   13   14 ar   
    28   13   15 1    
    29   14   83 1    
    30   15   16 1    
    31   15   84 1    
    32   15   85 1    
    33   16   17 1    
    34   17   18 1    
    35   17   86 1    
    36   17   87 1    
    37   18   19 1    
    38   18   37 1    
    39   18   88 1    
    40   19   20 am   BACKBONE|DICT|INTERRES
    41   19   89 1    
    42   20   21 2    
    43   20   22 1    
    44   22   23 1    
    45   22   24 1    
    46   22   90 1    
    47   23   91 1    
    48   23   92 1    
    49   23   93 1    
    50   24   25 am   BACKBONE|DICT|INTERRES
    51   24   94 1    
    52   25   26 2    
    53   25   27 1    
    54   27   28 1    
    55   27   29 1    
    56   27   95 1    
    57   28   96 1    
    58   28   97 1    
    59   28   98 1    
    60   29   30 am   BACKBONE|DICT|INTERRES
    61   29   99 1    
    62   30   31 2    
    63   30   32 1    
    64   32   33 1    
    65   32   34 1    
    66   32  100 1    
    67   33  101 1    
    68   33  102 1    
    69   33  103 1    
    70   34   35 am   BACKBONE|DICT|INTERRES
    71   34  104 1    
    72   35   36 2    
    73   37   38 2    
    74   37   39 am   BACKBONE|DICT|INTERRES
    75   39   40 1    
    76   39  105 1    
    77   40   41 1    
    78   40   42 1    
    79   40  106 1    
    80   41  107 1    
    81   41  108 1    
    82   41  109 1    
    83   42   43 2    
    84   42   44 am   BACKBONE|DICT|INTERRES
    85   44   45 1    
    86   44  110 1    
    87   45   46 1    
    88   45   47 1    
    89   45  111 1    
    90   46  112 1    
    91   46  113 1    
    92   46  114 1    
    93   47   48 2    
    94   47   49 am   BACKBONE|DICT|INTERRES
    95   49   50 1    
    96   49  115 1    
    97   50   51 1    
    98   50   52 1    
    99   50  116 1    
   100   51  117 1    
   101   51  118 1    
   102   51  119 1    
   103   52   53 2    
   104   52   54 am   BACKBONE|DICT|INTERRES
   105   54   55 1    
   106   54  120 1    
   107   55   56 1    
   108   55   57 1    
   109   55  121 1    
   110   56  122 1    
   111   56  123 1    
   112   56  124 1    
   113   57   58 2    
   114   57   59 am   BACKBONE|DICT|INTERRES
   115   59   60 1    
   116   59  125 1    
   117   60   61 1    
   118   60   62 1    
   119   60  126 1    
   120   61  127 1    
   121   61  128 1    
   122   61  129 1    
   123   62   63 2    
   124   62   64 am   BACKBONE|DICT|INTERRES
   125   64   65 1    
   126   64  130 1    
   127   65   66 1    
   128   65   69 1    
   129   65  131 1    
   130   66   67 am   BACKBONE|DICT|INTERRES
   131   66   68 2    
   132   67  132 1    
   133   67  133 1    
   134   69   70 1    
   135   69  134 1    
   136   69  135 1    
   137   70   71 1    
   138   71  136 1    
   139   71  137 1    
@<TRIPOS>SUBSTRUCTURE
     1 UNK         1 GROUP             0       ****    0 ROOT    
