@<TRIPOS>MOLECULE
3R136
137   139    1
SMALL
USER_CHARGES


@<TRIPOS>ATOM
      1 CA         30.8940   25.6939   -5.8660 C.3       0 UNK        -0.1979 
      2 C          30.3692   25.9525   -4.4614 C.2       0 UNK         0.4864 
      3 O          30.1406   27.1070   -4.0981 O.2       0 UNK        -0.5359 
      4 N          30.1846   24.8887   -3.6691 N.am      1 UNK        -0.4318 
      5 CA         29.6328   24.9479   -2.3143 C.3       1 UNK         0.0824 
      6 C6         29.9644   23.6594   -1.5197 C.3       12 UNK        -0.0944 
      7 S7         29.8168   23.9175    0.2775 S.3       12 UNK        -0.2672 
      8 C8         31.4725   23.4523    0.8723 C.3       12 UNK         0.0333 
      9 C9         31.6635   23.9135    2.3073 C.ar      12 UNK        -0.0807 
     10 C10        32.5579   24.9410    2.6154 C.ar      12 UNK        -0.0894 
     11 C11        32.7027   25.3966    3.9296 C.ar      12 UNK        -0.0804 
     12 C12        31.9298   24.8031    4.9401 C.ar      12 UNK        -0.0824 
     13 C13        31.0234   23.7760    4.6465 C.ar      12 UNK        -0.0762 
     14 C14        30.9207   23.3209    3.3278 C.ar      12 UNK        -0.0782 
     15 C15        30.1766   23.1690    5.7674 C.3       12 UNK         0.0230 
     16 S16        28.5576   22.5045    5.2254 S.3       12 UNK        -0.2608 
     17 C17        27.4712   23.9711    5.2414 C.3       12 UNK        -0.0989 
     18 CA         27.5061   24.8022    3.9202 C.3       5 UNK         0.0716 
     19 N          26.1977   25.3125    3.5016 N.am      5 UNK        -0.4135 
     20 C          25.3470   26.0518    4.2325 C.2       4 UNK         0.5031 
     21 O          25.5268   26.3306    5.4184 O.2       4 UNK        -0.5229 
     22 CA         24.0743   26.5898    3.5419 C.3       4 UNK         0.0329 
     23 CB         24.1312   28.1238    3.4366 C.3       4 UNK        -0.2001 
     24 N          23.8397   26.0420    2.2048 N.am      4 UNK        -0.4303 
     25 C          23.4815   24.7812    1.9252 C.2       3 UNK         0.5044 
     26 O          23.1827   23.9497    2.7824 O.2       3 UNK        -0.5152 
     27 CA         23.4979   24.3644    0.4400 C.3       3 UNK         0.0319 
     28 CB         22.0647   24.2875   -0.1109 C.3       3 UNK        -0.2001 
     29 N          24.3027   25.2310   -0.4349 N.am      3 UNK        -0.4354 
     30 C          25.6190   25.4584   -0.3149 C.2       2 UNK         0.4964 
     31 O          26.3166   24.9953    0.5923 O.2       2 UNK        -0.5047 
     32 CA         26.2280   26.4428   -1.3233 C.3       2 UNK         0.0288 
     33 CB         26.0916   27.8830   -0.8008 C.3       2 UNK        -0.2113 
     34 N          27.6431   26.1511   -1.5345 N.am      2 UNK        -0.4145 
     35 C          28.1134   25.2116   -2.3621 C.2       1 UNK         0.5006 
     36 O          27.4041   24.5511   -3.1273 O.2       1 UNK        -0.5103 
     37 C          28.5130   25.9680    3.9370 C.2       5 UNK         0.5055 
     38 O          28.9726   26.3791    5.0038 O.2       5 UNK        -0.5220 
     39 N          28.8092   26.5059    2.7474 N.am      6 UNK        -0.4450 
     40 CA         29.8102   27.5466    2.5450 C.3       6 UNK         0.0367 
     41 CB         29.2630   28.9236    2.9666 C.3       6 UNK        -0.1929 
     42 C          30.2306   27.5654    1.0757 C.2       6 UNK         0.5070 
     43 O          29.3708   27.4591    0.2009 O.2       6 UNK        -0.5237 
     44 N          31.5324   27.7443    0.8352 N.am      7 UNK        -0.4739 
     45 CA         32.1243   27.9778   -0.4877 C.3       7 UNK         0.0276 
     46 CB         32.9090   26.7283   -0.9250 C.3       7 UNK        -0.1927 
     47 C          33.0312   29.2231   -0.4877 C.2       7 UNK         0.5013 
     48 O          33.6533   29.5175   -1.5091 O.2       7 UNK        -0.5193 
     49 N          33.1063   29.9254    0.6491 N.am      8 UNK        -0.4253 
     50 CA         33.9110   31.1151    0.8887 C.3       8 UNK         0.0242 
     51 CB         35.3760   30.7200    1.1551 C.3       8 UNK        -0.2000 
     52 C          33.3136   31.8355    2.1003 C.2       8 UNK         0.4948 
     53 O          32.6493   31.1944    2.9220 O.2       8 UNK        -0.5275 
     54 N          33.5942   33.1413    2.2105 N.am      9 UNK        -0.4246 
     55 CA         33.0929   34.0352    3.2631 C.3       9 UNK         0.0261 
     56 CB         33.5740   35.4687    2.9854 C.3       9 UNK        -0.1959 
     57 C          33.4636   33.6140    4.6966 C.2       9 UNK         0.5033 
     58 O          32.7142   33.9231    5.6236 O.2       9 UNK        -0.5390 
     59 N          34.5754   32.8802    4.8516 N.am      10 UNK        -0.4215 
     60 CA         35.0300   32.2801    6.1101 C.3       10 UNK         0.0240 
     61 CB         36.3926   31.6052    5.8822 C.3       10 UNK        -0.1982 
     62 C          34.0332   31.2780    6.7262 C.2       10 UNK         0.4970 
     63 O          34.0294   31.1214    7.9479 O.2       10 UNK        -0.4916 
     64 N          33.2079   30.6407    5.8855 N.am      11 UNK        -0.4279 
     65 CA         32.1067   29.7563    6.2944 C.3       11 UNK         0.1003 
     66 C          30.7260   30.4769    6.3218 C.2       11 UNK         0.5709 
     67 N          30.6365   31.7805    6.0795 N.am      11 UNK        -0.7358 
     68 O          29.7096   29.8490    6.6047 O.2       11 UNK        -0.4999 
     69 C69        32.0825   28.4606    5.4404 C.3       12 UNK        -0.0954 
     70 S70        33.5366   27.4111    5.7725 S.3       12 UNK        -0.2268 
     71 C71        33.7280   26.5028    4.2007 C.3       12 UNK         0.0203 
     72 H72        31.0667   24.6333   -6.0486 H         1 UNK         0.0888 
     73 H73        31.8354   26.2215   -6.0176 H         1 UNK         0.0888 
     74 H74        30.1786   26.0532   -6.6053 H         1 UNK         0.0888 
     75 H75        30.3528   23.9624   -4.0348 H         1 UNK         0.3017 
     76 H76        30.1090   25.7931   -1.8137 H         1 UNK         0.0873 
     77 H77        30.9835   23.3381   -1.7406 H         1 UNK         0.0745 
     78 H78        29.3208   22.8286   -1.8161 H         1 UNK         0.0745 
     79 H79        31.5872   22.3690    0.8137 H         1 UNK         0.0705 
     80 H80        32.2391   23.8811    0.2273 H         1 UNK         0.0705 
     81 H81        33.1458   25.3883    1.8264 H         1 UNK         0.1334 
     82 H82        32.0227   25.1391    5.9629 H         1 UNK         0.1417 
     83 H83        30.2382   22.5213    3.0759 H         1 UNK         0.1562 
     84 H84        30.0108   23.9035    6.5572 H         1 UNK         0.0748 
     85 H85        30.7468   22.3556    6.2175 H         1 UNK         0.0748 
     86 H86        27.6637   24.5759    6.1292 H         1 UNK         0.0940 
     87 H87        26.4649   23.5775    5.3924 H         1 UNK         0.0940 
     88 H88        27.8156   24.1365    3.1121 H         1 UNK         0.0703 
     89 H89        25.9863   25.1682    2.5185 H         1 UNK         0.3081 
     90 H90        23.2252   26.3189    4.1729 H         1 UNK         0.0719 
     91 H91        24.2576   28.5795    4.4198 H         1 UNK         0.0809 
     92 H92        24.9648   28.4552    2.8157 H         1 UNK         0.0809 
     93 H93        23.2122   28.5284    3.0121 H         1 UNK         0.0809 
     94 H94        24.0503   26.6496    1.4271 H         1 UNK         0.2990 
     95 H95        23.9350   23.3646    0.3964 H         1 UNK         0.0690 
     96 H96        22.0498   23.8947   -1.1278 H         1 UNK         0.0788 
     97 H97        21.5825   25.2659   -0.1198 H         1 UNK         0.0788 
     98 H98        21.4466   23.6254    0.4975 H         1 UNK         0.0788 
     99 H99        23.8057   25.6768   -1.1935 H         1 UNK         0.2993 
    100 H100       25.6988   26.3576   -2.2752 H         1 UNK         0.0949 
    101 H101       26.5850   28.0109    0.1642 H         1 UNK         0.0767 
    102 H102       26.5330   28.5979   -1.4956 H         1 UNK         0.0767 
    103 H103       25.0445   28.1604   -0.6738 H         1 UNK         0.0767 
    104 H104       28.2955   26.6228   -0.9066 H         1 UNK         0.3013 
    105 H105       28.4090   26.1235    1.8983 H         1 UNK         0.3121 
    106 H106       30.6808   27.2988    3.1527 H         1 UNK         0.0774 
    107 H107       28.3791   29.1971    2.3890 H         1 UNK         0.0815 
    108 H108       28.9900   28.9404    4.0216 H         1 UNK         0.0815 
    109 H109       30.0090   29.7055    2.8168 H         1 UNK         0.0815 
    110 H110       32.1698   27.7814    1.6169 H         1 UNK         0.2987 
    111 H111       31.3398   28.1682   -1.2241 H         1 UNK         0.0949 
    112 H112       32.2707   25.8480   -0.9462 H         1 UNK         0.0806 
    113 H113       33.3126   26.8523   -1.9308 H         1 UNK         0.0806 
    114 H114       33.7481   26.5231   -0.2598 H         1 UNK         0.0806 
    115 H115       32.5019   29.6944    1.4268 H         1 UNK         0.3010 
    116 H116       33.8504   31.7722    0.0183 H         1 UNK         0.0829 
    117 H117       35.9943   31.5985    1.3431 H         1 UNK         0.0813 
    118 H118       35.8098   30.2009    0.3002 H         1 UNK         0.0813 
    119 H119       35.4646   30.0644    2.0226 H         1 UNK         0.0813 
    120 H120       34.1610   33.5725    1.4936 H         1 UNK         0.3038 
    121 H121       32.0025   34.0240    3.2016 H         1 UNK         0.0769 
    122 H122       33.2232   35.8260    2.0170 H         1 UNK         0.0811 
    123 H123       34.6625   35.5395    2.9971 H         1 UNK         0.0811 
    124 H124       33.1947   36.1608    3.7389 H         1 UNK         0.0811 
    125 H125       35.1263   32.6819    4.0295 H         1 UNK         0.3204 
    126 H126       35.1627   33.0902    6.8302 H         1 UNK         0.0748 
    127 H127       36.7733   31.1719    6.8084 H         1 UNK         0.0771 
    128 H128       36.3266   30.7997    5.1493 H         1 UNK         0.0771 
    129 H129       37.1376   32.3201    5.5320 H         1 UNK         0.0771 
    130 H130       33.2420   30.8565    4.8954 H         1 UNK         0.2980 
    131 H131       32.2653   29.4473    7.3290 H         1 UNK         0.0545 
    132 H132       31.4588   32.3444    5.9013 H         1 UNK         0.3459 
    133 H133       29.7310   32.2195    6.1176 H         1 UNK         0.3459 
    134 H134       32.0479   28.7154    4.3809 H         1 UNK         0.0616 
    135 H135       31.1948   27.8617    5.6504 H         1 UNK         0.0616 
    136 H136       34.7186   26.0465    4.1997 H         1 UNK         0.0634 
    137 H137       33.7254   27.2251    3.3832 H         1 UNK         0.0634 
@<TRIPOS>BOND
     1    1    2 1    
     2    1   72 1    
     3    1   73 1    
     4    1   74 1    
     5    2    3 2    
     6    2    4 am   BACKBONE|DICT|INTERRES
     7    4    5 1    
     8    4   75 1    
     9    5    6 1    
    10    5   35 1    
    11    5   76 1    
    12    6    7 1    
    13    6   77 1    
    14    6   78 1    
    15    7    8 1    
    16    8    9 1    
    17    8   79 1    
    18    8   80 1    
    19    9   10 ar   
    20    9   14 ar   
    21   10   11 ar   
    22   10   81 1    
    23   11   12 ar   
    24   11   71 1    
    25   12   13 ar   
    26   12   82 1    
    27   13   14 ar   
    28   13   15 1    
    29   14   83 1    
    30   15   16 1    
    31   15   84 1    
    32   15   85 1    
    33   16   17 1    
    34   17   18 1    
    35   17   86 1    
    36   17   87 1    
    37   18   19 1    
    38   18   37 1    
    39   18   88 1    
    40   19   20 am   BACKBONE|DICT|INTERRES
    41   19   89 1    
    42   20   21 2    
    43   20   22 1    
    44   22   23 1    
    45   22   24 1    
    46   22   90 1    
    47   23   91 1    
    48   23   92 1    
    49   23   93 1    
    50   24   25 am   BACKBONE|DICT|INTERRES
    51   24   94 1    
    52   25   26 2    
    53   25   27 1    
    54   27   28 1    
    55   27   29 1    
    56   27   95 1    
    57   28   96 1    
    58   28   97 1    
    59   28   98 1    
    60   29   30 am   BACKBONE|DICT|INTERRES
    61   29   99 1    
    62   30   31 2    
    63   30   32 1    
    64   32   33 1    
    65   32   34 1    
    66   32  100 1    
    67   33  101 1    
    68   33  102 1    
    69   33  103 1    
    70   34   35 am   BACKBONE|DICT|INTERRES
    71   34  104 1    
    72   35   36 2    
    73   37   38 2    
    74   37   39 am   BACKBONE|DICT|INTERRES
    75   39   40 1    
    76   39  105 1    
    77   40   41 1    
    78   40   42 1    
    79   40  106 1    
    80   41  107 1    
    81   41  108 1    
    82   41  109 1    
    83   42   43 2    
    84   42   44 am   BACKBONE|DICT|INTERRES
    85   44   45 1    
    86   44  110 1    
    87   45   46 1    
    88   45   47 1    
    89   45  111 1    
    90   46  112 1    
    91   46  113 1    
    92   46  114 1    
    93   47   48 2    
    94   47   49 am   BACKBONE|DICT|INTERRES
    95   49   50 1    
    96   49  115 1    
    97   50   51 1    
    98   50   52 1    
    99   50  116 1    
   100   51  117 1    
   101   51  118 1    
   102   51  119 1    
   103   52   53 2    
   104   52   54 am   BACKBONE|DICT|INTERRES
   105   54   55 1    
   106   54  120 1    
   107   55   56 1    
   108   55   57 1    
   109   55  121 1    
   110   56  122 1    
   111   56  123 1    
   112   56  124 1    
   113   57   58 2    
   114   57   59 am   BACKBONE|DICT|INTERRES
   115   59   60 1    
   116   59  125 1    
   117   60   61 1    
   118   60   62 1    
   119   60  126 1    
   120   61  127 1    
   121   61  128 1    
   122   61  129 1    
   123   62   63 2    
   124   62   64 am   BACKBONE|DICT|INTERRES
   125   64   65 1    
   126   64  130 1    
   127   65   66 1    
   128   65   69 1    
   129   65  131 1    
   130   66   67 am   BACKBONE|DICT|INTERRES
   131   66   68 2    
   132   67  132 1    
   133   67  133 1    
   134   69   70 1    
   135   69  134 1    
   136   69  135 1    
   137   70   71 1    
   138   71  136 1    
   139   71  137 1    
@<TRIPOS>SUBSTRUCTURE
     1 UNK         1 GROUP             0       ****    0 ROOT    
