@<TRIPOS>MOLECULE
3R136
137   139    1
SMALL
USER_CHARGES


@<TRIPOS>ATOM
      1 CA         25.8075   22.9378    3.1854 C.3       0 UNK        -0.1979 
      2 C          26.8932   22.9494    2.1207 C.2       0 UNK         0.4864 
      3 O          27.0296   23.9436    1.4062 O.2       0 UNK        -0.5359 
      4 N          27.6590   21.8524    2.0161 N.am      1 UNK        -0.4318 
      5 CA         28.7744   21.6405    1.0825 C.3       1 UNK         0.0824 
      6 C6         30.0029   22.5419    1.3837 C.3       12 UNK        -0.0944 
      7 S7         30.7105   22.2048    3.0312 S.3       12 UNK        -0.2672 
      8 C8         32.1652   23.3007    3.0297 C.3       12 UNK         0.0333 
      9 C9         31.7625   24.7664    2.9696 C.ar      12 UNK        -0.0807 
     10 C10        31.3535   25.4324    4.1283 C.ar      12 UNK        -0.0894 
     11 C11        30.9554   26.7712    4.0722 C.ar      12 UNK        -0.0804 
     12 C12        30.9687   27.4404    2.8438 C.ar      12 UNK        -0.0824 
     13 C13        31.3629   26.7816    1.6752 C.ar      12 UNK        -0.0762 
     14 C14        31.7757   25.4487    1.7498 C.ar      12 UNK        -0.0782 
     15 C15        31.3237   27.4854    0.3227 C.3       12 UNK         0.0230 
     16 S16        29.7401   28.3243   -0.0249 S.3       12 UNK        -0.2608 
     17 C17        28.5048   27.0034    0.2561 C.3       12 UNK        -0.0989 
     18 CA         27.1773   27.5465    0.8357 C.3       5 UNK         0.0716 
     19 N          26.1355   26.5224    0.8037 N.am      5 UNK        -0.4135 
     20 C          24.8240   26.7821    0.8011 C.2       4 UNK         0.5031 
     21 O          24.3538   27.9206    0.7416 O.2       4 UNK        -0.5229 
     22 CA         23.8903   25.5647    0.8291 C.3       4 UNK         0.0329 
     23 CB         22.3956   25.9529    0.8547 C.3       4 UNK        -0.2001 
     24 N          24.1801   24.7127   -0.3226 N.am      4 UNK        -0.4303 
     25 C          23.8258   23.4312   -0.4544 C.2       3 UNK         0.5044 
     26 O          23.2204   22.7936    0.4079 O.2       3 UNK        -0.5152 
     27 CA         24.2034   22.7343   -1.7727 C.3       3 UNK         0.0319 
     28 CB         23.4617   23.3450   -2.9793 C.3       3 UNK        -0.2001 
     29 N          25.6503   22.6512   -2.0014 N.am      3 UNK        -0.4354 
     30 C          26.5286   23.6338   -2.2447 C.2       2 UNK         0.4964 
     31 O          26.2300   24.8272   -2.3273 O.2       2 UNK        -0.5047 
     32 CA         27.9988   23.1903   -2.3718 C.3       2 UNK         0.0288 
     33 CB         28.8920   24.2572   -3.0318 C.3       2 UNK        -0.2113 
     34 N          28.5415   22.8566   -1.0547 N.am      2 UNK        -0.4145 
     35 C          28.2774   21.7306   -0.3759 C.2       1 UNK         0.5006 
     36 O          27.6318   20.7911   -0.8478 O.2       1 UNK        -0.5103 
     37 C          27.3358   28.0914    2.2708 C.2       5 UNK         0.5055 
     38 O          27.2576   27.3274    3.2361 O.2       5 UNK        -0.5220 
     39 N          27.5768   29.4031    2.3733 N.am      6 UNK        -0.4450 
     40 CA         27.8367   30.1267    3.6179 C.3       6 UNK         0.0367 
     41 CB         26.5074   30.4936    4.3075 C.3       6 UNK        -0.1929 
     42 C          28.7316   31.3479    3.3488 C.2       6 UNK         0.5070 
     43 O          28.5732   32.3816    3.9999 O.2       6 UNK        -0.5237 
     44 N          29.6468   31.2299    2.3752 N.am      7 UNK        -0.4739 
     45 CA         30.5045   32.3070    1.8670 C.3       7 UNK         0.0276 
     46 CB         30.9599   31.9444    0.4405 C.3       7 UNK        -0.1927 
     47 C          31.6781   32.6805    2.8002 C.2       7 UNK         0.5013 
     48 O          32.8242   32.7407    2.3495 O.2       7 UNK        -0.5193 
     49 N          31.3604   32.9517    4.0743 N.am      8 UNK        -0.4253 
     50 CA         32.2131   33.5004    5.1365 C.3       8 UNK         0.0242 
     51 CB         32.3208   35.0326    4.9682 C.3       8 UNK        -0.2000 
     52 C          33.5800   32.7988    5.2553 C.2       8 UNK         0.4948 
     53 O          33.6471   31.6882    5.7805 O.2       8 UNK        -0.5275 
     54 N          34.6383   33.4440    4.7444 N.am      9 UNK        -0.4246 
     55 CA         36.0206   32.9571    4.7302 C.3       9 UNK         0.0261 
     56 CB         36.9337   34.0663    4.1818 C.3       9 UNK        -0.1959 
     57 C          36.2385   31.6454    3.9506 C.2       9 UNK         0.5033 
     58 O          37.2621   30.9948    4.1663 O.2       9 UNK        -0.5390 
     59 N          35.2956   31.2685    3.0737 N.am      10 UNK        -0.4215 
     60 CA         35.3020   29.9873    2.3645 C.3       10 UNK         0.0240 
     61 CB         34.2877   30.0371    1.2133 C.3       10 UNK        -0.1982 
     62 C          35.0036   28.7804    3.2742 C.2       10 UNK         0.4970 
     63 O          35.3866   27.6665    2.9137 O.2       10 UNK        -0.4916 
     64 N          34.3235   29.0022    4.4088 N.am      11 UNK        -0.4279 
     65 CA         33.9862   27.9557    5.3824 C.3       11 UNK         0.1003 
     66 C          35.2352   27.4068    6.1234 C.2       11 UNK         0.5709 
     67 N          35.2600   26.1154    6.4256 N.am      11 UNK        -0.7358 
     68 O          36.1575   28.1442    6.4667 O.2       11 UNK        -0.4999 
     69 C69        32.9128   28.4235    6.4001 C.3       12 UNK        -0.0954 
     70 S70        31.3740   29.0372    5.6336 S.3       12 UNK        -0.2268 
     71 C71        30.4756   27.4816    5.3306 C.3       12 UNK         0.0203 
     72 H72        25.8147   23.8776    3.7373 H         1 UNK         0.0888 
     73 H73        24.8288   22.8196    2.7219 H         1 UNK         0.0888 
     74 H74        25.9479   22.1265    3.8994 H         1 UNK         0.0888 
     75 H75        27.4682   21.0696    2.6255 H         1 UNK         0.3017 
     76 H76        29.0908   20.6048    1.2176 H         1 UNK         0.0873 
     77 H77        29.7274   23.5963    1.3368 H         1 UNK         0.0745 
     78 H78        30.7887   22.3834    0.6425 H         1 UNK         0.0745 
     79 H79        32.7472   23.1177    3.9342 H         1 UNK         0.0705 
     80 H80        32.8148   23.0423    2.1919 H         1 UNK         0.0705 
     81 H81        31.3307   24.9003    5.0694 H         1 UNK         0.1334 
     82 H82        30.6509   28.4713    2.7970 H         1 UNK         0.1417 
     83 H83        32.0837   24.9299    0.8522 H         1 UNK         0.1562 
     84 H84        31.5168   26.7785   -0.4857 H         1 UNK         0.0748 
     85 H85        32.1255   28.2218    0.2832 H         1 UNK         0.0748 
     86 H86        28.9033   26.2174    0.8996 H         1 UNK         0.0940 
     87 H87        28.3111   26.5309   -0.7068 H         1 UNK         0.0940 
     88 H88        26.8499   28.3662    0.1917 H         1 UNK         0.0703 
     89 H89        26.4482   25.5593    0.9344 H         1 UNK         0.3081 
     90 H90        24.1194   25.0124    1.7421 H         1 UNK         0.0719 
     91 H91        22.1768   26.6102    1.6972 H         1 UNK         0.0809 
     92 H92        22.1022   26.4771   -0.0556 H         1 UNK         0.0809 
     93 H93        21.7542   25.0779    0.9583 H         1 UNK         0.0809 
     94 H94        24.7559   25.1188   -1.0565 H         1 UNK         0.2990 
     95 H95        23.8665   21.7002   -1.6828 H         1 UNK         0.0690 
     96 H96        22.3827   23.3252   -2.8205 H         1 UNK         0.0788 
     97 H97        23.6644   22.7843   -3.8918 H         1 UNK         0.0788 
     98 H98        23.7414   24.3835   -3.1574 H         1 UNK         0.0788 
     99 H99        26.0485   21.7287   -1.8576 H         1 UNK         0.2993 
    100 H100       28.0251   22.3008   -3.0055 H         1 UNK         0.0949 
    101 H101       29.9078   23.8882   -3.1744 H         1 UNK         0.0767 
    102 H102       28.5069   24.5318   -4.0148 H         1 UNK         0.0767 
    103 H103       28.9494   25.1695   -2.4394 H         1 UNK         0.0767 
    104 H104       29.0070   23.6040   -0.5620 H         1 UNK         0.3013 
    105 H105       27.6140   29.9584    1.5285 H         1 UNK         0.3121 
    106 H106       28.4035   29.4840    4.2911 H         1 UNK         0.0774 
    107 H107       25.9062   31.1604    3.6886 H         1 UNK         0.0815 
    108 H108       25.9117   29.6061    4.5212 H         1 UNK         0.0815 
    109 H109       26.6834   30.9974    5.2588 H         1 UNK         0.0815 
    110 H110       29.7441   30.3366    1.9144 H         1 UNK         0.2987 
    111 H111       29.8946   33.2096    1.7849 H         1 UNK         0.0949 
    112 H112       31.5886   32.7274    0.0142 H         1 UNK         0.0806 
    113 H113       31.5310   31.0174    0.4179 H         1 UNK         0.0806 
    114 H114       30.1067   31.8225   -0.2269 H         1 UNK         0.0806 
    115 H115       30.3808   32.8261    4.3188 H         1 UNK         0.3010 
    116 H116       31.6950   33.3082    6.0773 H         1 UNK         0.0829 
    117 H117       32.7308   35.3150    3.9978 H         1 UNK         0.0813 
    118 H118       31.3403   35.5014    5.0544 H         1 UNK         0.0813 
    119 H119       32.9513   35.4741    5.7415 H         1 UNK         0.0813 
    120 H120       34.4717   34.3339    4.2975 H         1 UNK         0.3038 
    121 H121       36.3049   32.7604    5.7659 H         1 UNK         0.0769 
    122 H122       36.6794   34.3256    3.1533 H         1 UNK         0.0811 
    123 H123       37.9786   33.7524    4.1894 H         1 UNK         0.0811 
    124 H124       36.8668   34.9721    4.7849 H         1 UNK         0.0811 
    125 H125       34.4859   31.8680    2.9290 H         1 UNK         0.3204 
    126 H126       36.2963   29.8433    1.9365 H         1 UNK         0.0748 
    127 H127       34.3711   29.1494    0.5853 H         1 UNK         0.0771 
    128 H128       33.2667   30.0756    1.5928 H         1 UNK         0.0771 
    129 H129       34.4451   30.9056    0.5734 H         1 UNK         0.0771 
    130 H130       34.0709   29.9475    4.6737 H         1 UNK         0.2980 
    131 H131       33.5656   27.1266    4.8129 H         1 UNK         0.0545 
    132 H132       36.0553   25.7446    6.9217 H         1 UNK         0.3459 
    133 H133       34.5055   25.5026    6.1599 H         1 UNK         0.3459 
    134 H134       33.3117   29.2275    7.0211 H         1 UNK         0.0616 
    135 H135       32.6577   27.6144    7.0867 H         1 UNK         0.0616 
    136 H136       30.5643   26.8369    6.2061 H         1 UNK         0.0634 
    137 H137       29.4127   27.6944    5.2232 H         1 UNK         0.0634 
@<TRIPOS>BOND
     1    1    2 1    
     2    1   72 1    
     3    1   73 1    
     4    1   74 1    
     5    2    3 2    
     6    2    4 am   BACKBONE|DICT|INTERRES
     7    4    5 1    
     8    4   75 1    
     9    5    6 1    
    10    5   35 1    
    11    5   76 1    
    12    6    7 1    
    13    6   77 1    
    14    6   78 1    
    15    7    8 1    
    16    8    9 1    
    17    8   79 1    
    18    8   80 1    
    19    9   10 ar   
    20    9   14 ar   
    21   10   11 ar   
    22   10   81 1    
    23   11   12 ar   
    24   11   71 1    
    25   12   13 ar   
    26   12   82 1    
    27   13   14 ar   
    28   13   15 1    
    29   14   83 1    
    30   15   16 1    
    31   15   84 1    
    32   15   85 1    
    33   16   17 1    
    34   17   18 1    
    35   17   86 1    
    36   17   87 1    
    37   18   19 1    
    38   18   37 1    
    39   18   88 1    
    40   19   20 am   BACKBONE|DICT|INTERRES
    41   19   89 1    
    42   20   21 2    
    43   20   22 1    
    44   22   23 1    
    45   22   24 1    
    46   22   90 1    
    47   23   91 1    
    48   23   92 1    
    49   23   93 1    
    50   24   25 am   BACKBONE|DICT|INTERRES
    51   24   94 1    
    52   25   26 2    
    53   25   27 1    
    54   27   28 1    
    55   27   29 1    
    56   27   95 1    
    57   28   96 1    
    58   28   97 1    
    59   28   98 1    
    60   29   30 am   BACKBONE|DICT|INTERRES
    61   29   99 1    
    62   30   31 2    
    63   30   32 1    
    64   32   33 1    
    65   32   34 1    
    66   32  100 1    
    67   33  101 1    
    68   33  102 1    
    69   33  103 1    
    70   34   35 am   BACKBONE|DICT|INTERRES
    71   34  104 1    
    72   35   36 2    
    73   37   38 2    
    74   37   39 am   BACKBONE|DICT|INTERRES
    75   39   40 1    
    76   39  105 1    
    77   40   41 1    
    78   40   42 1    
    79   40  106 1    
    80   41  107 1    
    81   41  108 1    
    82   41  109 1    
    83   42   43 2    
    84   42   44 am   BACKBONE|DICT|INTERRES
    85   44   45 1    
    86   44  110 1    
    87   45   46 1    
    88   45   47 1    
    89   45  111 1    
    90   46  112 1    
    91   46  113 1    
    92   46  114 1    
    93   47   48 2    
    94   47   49 am   BACKBONE|DICT|INTERRES
    95   49   50 1    
    96   49  115 1    
    97   50   51 1    
    98   50   52 1    
    99   50  116 1    
   100   51  117 1    
   101   51  118 1    
   102   51  119 1    
   103   52   53 2    
   104   52   54 am   BACKBONE|DICT|INTERRES
   105   54   55 1    
   106   54  120 1    
   107   55   56 1    
   108   55   57 1    
   109   55  121 1    
   110   56  122 1    
   111   56  123 1    
   112   56  124 1    
   113   57   58 2    
   114   57   59 am   BACKBONE|DICT|INTERRES
   115   59   60 1    
   116   59  125 1    
   117   60   61 1    
   118   60   62 1    
   119   60  126 1    
   120   61  127 1    
   121   61  128 1    
   122   61  129 1    
   123   62   63 2    
   124   62   64 am   BACKBONE|DICT|INTERRES
   125   64   65 1    
   126   64  130 1    
   127   65   66 1    
   128   65   69 1    
   129   65  131 1    
   130   66   67 am   BACKBONE|DICT|INTERRES
   131   66   68 2    
   132   67  132 1    
   133   67  133 1    
   134   69   70 1    
   135   69  134 1    
   136   69  135 1    
   137   70   71 1    
   138   71  136 1    
   139   71  137 1    
@<TRIPOS>SUBSTRUCTURE
     1 UNK         1 GROUP             0       ****    0 ROOT    
