@<TRIPOS>MOLECULE
3R136
137   139    1
SMALL
USER_CHARGES


@<TRIPOS>ATOM
      1 CA         34.7012   24.5281    0.6521 C.3       0 UNK        -0.1979 
      2 C          33.1921   24.7217    0.6864 C.2       0 UNK         0.4864 
      3 O          32.6957   25.7166    0.1595 O.2       0 UNK        -0.5359 
      4 N          32.4690   23.7833    1.3140 N.am      1 UNK        -0.4318 
      5 CA         31.0053   23.7482    1.4023 C.3       1 UNK         0.0824 
      6 C6         30.5504   22.6075    2.3507 C.3       12 UNK        -0.0944 
      7 S7         28.7401   22.4764    2.5758 S.3       12 UNK        -0.2672 
      8 C8         28.5576   22.5182    4.3848 C.3       12 UNK         0.0333 
      9 C9         28.4510   23.9426    4.9048 C.ar      12 UNK        -0.0807 
     10 C10        29.5885   24.6246    5.3459 C.ar      12 UNK        -0.0894 
     11 C11        29.4845   25.9265    5.8447 C.ar      12 UNK        -0.0804 
     12 C12        28.2313   26.5454    5.8976 C.ar      12 UNK        -0.0824 
     13 C13        27.0853   25.8731    5.4591 C.ar      12 UNK        -0.0762 
     14 C14        27.2027   24.5701    4.9666 C.ar      12 UNK        -0.0782 
     15 C15        25.7198   26.5481    5.5408 C.3       12 UNK         0.0230 
     16 S16        24.9172   26.7471    3.9137 S.3       12 UNK        -0.2608 
     17 C17        26.1698   27.6986    2.9940 C.3       12 UNK        -0.0989 
     18 CA         26.7037   26.8948    1.7760 C.3       5 UNK         0.0716 
     19 N          25.7484   26.7506    0.6701 N.am      5 UNK        -0.4135 
     20 C          25.1398   27.7155   -0.0354 C.2       4 UNK         0.5031 
     21 O          25.3105   28.9184    0.1755 O.2       4 UNK        -0.5229 
     22 CA         24.2212   27.2667   -1.1902 C.3       4 UNK         0.0329 
     23 CB         24.0467   28.3640   -2.2574 C.3       4 UNK        -0.2001 
     24 N          24.7453   26.0608   -1.8345 N.am      4 UNK        -0.4303 
     25 C          24.2501   24.8227   -1.7035 C.2       3 UNK         0.5044 
     26 O          23.2162   24.5551   -1.0915 O.2       3 UNK        -0.5152 
     27 CA         25.0762   23.6801   -2.3291 C.3       3 UNK         0.0319 
     28 CB         24.5595   23.3532   -3.7394 C.3       3 UNK        -0.2001 
     29 N          26.5188   23.9566   -2.3910 N.am      3 UNK        -0.4354 
     30 C          27.2998   24.1753   -1.3231 C.2       2 UNK         0.4964 
     31 O          26.8864   24.1373   -0.1621 O.2       2 UNK        -0.5047 
     32 CA         28.7542   24.5716   -1.6153 C.3       2 UNK         0.0288 
     33 CB         28.8118   25.9803   -2.2315 C.3       2 UNK        -0.2113 
     34 N          29.5337   24.5740   -0.3779 N.am      2 UNK        -0.4145 
     35 C          30.3871   23.6145   -0.0076 C.2       1 UNK         0.5006 
     36 O          30.6940   22.6500   -0.7150 O.2       1 UNK        -0.5103 
     37 C          28.0692   27.4283    1.3128 C.2       5 UNK         0.5055 
     38 O          29.0666   26.7310    1.4920 O.2       5 UNK        -0.5220 
     39 N          28.0838   28.6438    0.7447 N.am      6 UNK        -0.4450 
     40 CA         29.2513   29.5148    0.5506 C.3       6 UNK         0.0367 
     41 CB         30.2878   28.8935   -0.4100 C.3       6 UNK        -0.1929 
     42 C          29.8355   29.9059    1.9213 C.2       6 UNK         0.5070 
     43 O          30.9866   29.5977    2.2263 O.2       6 UNK        -0.5237 
     44 N          28.9750   30.5243    2.7422 N.am      7 UNK        -0.4739 
     45 CA         29.1991   30.8441    4.1532 C.3       7 UNK         0.0276 
     46 CB         27.9399   31.5350    4.7032 C.3       7 UNK        -0.1927 
     47 C          30.4473   31.7032    4.4317 C.2       7 UNK         0.5013 
     48 O          30.8682   32.4893    3.5785 O.2       7 UNK        -0.5193 
     49 N          30.9664   31.5665    5.6594 N.am      8 UNK        -0.4253 
     50 CA         32.1227   32.2674    6.2202 C.3       8 UNK         0.0242 
     51 CB         31.8606   33.7890    6.3285 C.3       8 UNK        -0.2000 
     52 C          33.4296   31.8866    5.5008 C.2       8 UNK         0.4948 
     53 O          33.8272   30.7231    5.5667 O.2       8 UNK        -0.5275 
     54 N          34.0948   32.8671    4.8753 N.am      9 UNK        -0.4246 
     55 CA         35.4605   32.7798    4.3481 C.3       9 UNK         0.0261 
     56 CB         35.8760   34.1573    3.8050 C.3       9 UNK        -0.1959 
     57 C          35.7088   31.6917    3.2879 C.2       9 UNK         0.5033 
     58 O          36.8455   31.2286    3.1785 O.2       9 UNK        -0.5390 
     59 N          34.6762   31.3157    2.5211 N.am      10 UNK        -0.4215 
     60 CA         34.7670   30.2672    1.5045 C.3       10 UNK         0.0240 
     61 CB         33.7047   30.4777    0.4144 C.3       10 UNK        -0.1982 
     62 C          34.7291   28.8594    2.1232 C.2       10 UNK         0.4970 
     63 O          35.6864   28.1069    1.9340 O.2       10 UNK        -0.4916 
     64 N          33.6542   28.5239    2.8518 N.am      11 UNK        -0.4279 
     65 CA         33.5160   27.2260    3.5342 C.3       11 UNK         0.1003 
     66 C          34.4665   27.0064    4.7461 C.2       11 UNK         0.5709 
     67 N          34.9291   28.0487    5.4253 N.am      11 UNK        -0.7358 
     68 O          34.8016   25.8672    5.0625 O.2       11 UNK        -0.4999 
     69 C69        32.0410   26.8757    3.8589 C.3       12 UNK        -0.0954 
     70 S70        31.2976   27.9098    5.1679 S.3       12 UNK        -0.2268 
     71 C71        30.7192   26.6585    6.3523 C.3       12 UNK         0.0203 
     72 H72        35.2054   25.4294    1.0001 H         1 UNK         0.0888 
     73 H73        35.0212   23.6982    1.2820 H         1 UNK         0.0888 
     74 H74        35.0291   24.3287   -0.3677 H         1 UNK         0.0888 
     75 H75        32.9439   22.9806    1.7009 H         1 UNK         0.3017 
     76 H76        30.6859   24.6964    1.8394 H         1 UNK         0.0873 
     77 H77        30.9058   21.6440    1.9802 H         1 UNK         0.0745 
     78 H78        31.0219   22.7415    3.3248 H         1 UNK         0.0745 
     79 H79        29.3844   21.9898    4.8619 H         1 UNK         0.0705 
     80 H80        27.6564   21.9649    4.6535 H         1 UNK         0.0705 
     81 H81        30.5536   24.1389    5.3087 H         1 UNK         0.1334 
     82 H82        28.1523   27.5517    6.2859 H         1 UNK         0.1417 
     83 H83        26.3195   24.0456    4.6275 H         1 UNK         0.1562 
     84 H84        25.7995   27.5288    6.0127 H         1 UNK         0.0748 
     85 H85        25.0688   25.9535    6.1831 H         1 UNK         0.0748 
     86 H86        26.9836   27.9612    3.6726 H         1 UNK         0.0940 
     87 H87        25.7331   28.6508    2.6921 H         1 UNK         0.0940 
     88 H88        26.8958   25.8755    2.1181 H         1 UNK         0.0703 
     89 H89        25.6064   25.7907    0.3787 H         1 UNK         0.3081 
     90 H90        23.2415   27.0670   -0.7515 H         1 UNK         0.0719 
     91 H91        25.0015   28.6570   -2.6955 H         1 UNK         0.0809 
     92 H92        23.3950   28.0303   -3.0651 H         1 UNK         0.0809 
     93 H93        23.5942   29.2598   -1.8298 H         1 UNK         0.0809 
     94 H94        25.6037   26.1706   -2.3549 H         1 UNK         0.2990 
     95 H95        24.9370   22.7976   -1.7009 H         1 UNK         0.0690 
     96 H96        25.0718   22.4874   -4.1597 H         1 UNK         0.0788 
     97 H97        24.6952   24.1909   -4.4247 H         1 UNK         0.0788 
     98 H98        23.4943   23.1179   -3.7196 H         1 UNK         0.0788 
     99 H99        26.9287   24.0068   -3.3133 H         1 UNK         0.2993 
    100 H100       29.1714   23.8560   -2.3271 H         1 UNK         0.0949 
    101 H101       28.3125   26.7180   -1.6028 H         1 UNK         0.0767 
    102 H102       29.8432   26.3047   -2.3725 H         1 UNK         0.0767 
    103 H103       28.3321   26.0069   -3.2105 H         1 UNK         0.0767 
    104 H104       29.3244   25.3165    0.2869 H         1 UNK         0.3013 
    105 H105       27.1746   29.0709    0.5798 H         1 UNK         0.3121 
    106 H106       28.8860   30.4327    0.0876 H         1 UNK         0.0774 
    107 H107       31.0848   29.6044   -0.6247 H         1 UNK         0.0815 
    108 H108       30.7576   28.0007    0.0047 H         1 UNK         0.0815 
    109 H109       29.8340   28.6275   -1.3632 H         1 UNK         0.0815 
    110 H110       28.0627   30.7556    2.3790 H         1 UNK         0.2987 
    111 H111       29.3175   29.8928    4.6727 H         1 UNK         0.0949 
    112 H112       28.0442   31.7588    5.7658 H         1 UNK         0.0806 
    113 H113       27.7439   32.4781    4.1910 H         1 UNK         0.0806 
    114 H114       27.0583   30.9027    4.5951 H         1 UNK         0.0806 
    115 H115       30.5631   30.8648    6.2644 H         1 UNK         0.3010 
    116 H116       32.2333   31.8916    7.2386 H         1 UNK         0.0829 
    117 H117       30.9645   33.9869    6.9169 H         1 UNK         0.0813 
    118 H118       32.6855   34.2962    6.8310 H         1 UNK         0.0813 
    119 H119       31.7220   34.2626    5.3562 H         1 UNK         0.0813 
    120 H120       33.6646   33.7804    4.8529 H         1 UNK         0.3038 
    121 H121       36.1085   32.5430    5.1947 H         1 UNK         0.0769 
    122 H122       36.9007   34.1378    3.4306 H         1 UNK         0.0811 
    123 H123       35.8335   34.9216    4.5812 H         1 UNK         0.0811 
    124 H124       35.2350   34.4759    2.9819 H         1 UNK         0.0811 
    125 H125       33.7674   31.7209    2.6977 H         1 UNK         0.3204 
    126 H126       35.7352   30.3573    1.0063 H         1 UNK         0.0748 
    127 H127       33.6058   29.5954   -0.2197 H         1 UNK         0.0771 
    128 H128       32.7265   30.6986    0.8342 H         1 UNK         0.0771 
    129 H129       33.9734   31.3127   -0.2327 H         1 UNK         0.0771 
    130 H130       32.8539   29.1459    2.9066 H         1 UNK         0.2980 
    131 H131       33.8319   26.4810    2.8054 H         1 UNK         0.0545 
    132 H132       34.5761   28.9843    5.2424 H         1 UNK         0.3459 
    133 H133       35.5502   27.8931    6.2020 H         1 UNK         0.3459 
    134 H134       31.4303   26.9779    2.9605 H         1 UNK         0.0616 
    135 H135       31.9696   25.8237    4.1370 H         1 UNK         0.0616 
    136 H136       30.4824   27.1537    7.2950 H         1 UNK         0.0634 
    137 H137       31.5291   25.9605    6.5703 H         1 UNK         0.0634 
@<TRIPOS>BOND
     1    1    2 1    
     2    1   72 1    
     3    1   73 1    
     4    1   74 1    
     5    2    3 2    
     6    2    4 am   BACKBONE|DICT|INTERRES
     7    4    5 1    
     8    4   75 1    
     9    5    6 1    
    10    5   35 1    
    11    5   76 1    
    12    6    7 1    
    13    6   77 1    
    14    6   78 1    
    15    7    8 1    
    16    8    9 1    
    17    8   79 1    
    18    8   80 1    
    19    9   10 ar   
    20    9   14 ar   
    21   10   11 ar   
    22   10   81 1    
    23   11   12 ar   
    24   11   71 1    
    25   12   13 ar   
    26   12   82 1    
    27   13   14 ar   
    28   13   15 1    
    29   14   83 1    
    30   15   16 1    
    31   15   84 1    
    32   15   85 1    
    33   16   17 1    
    34   17   18 1    
    35   17   86 1    
    36   17   87 1    
    37   18   19 1    
    38   18   37 1    
    39   18   88 1    
    40   19   20 am   BACKBONE|DICT|INTERRES
    41   19   89 1    
    42   20   21 2    
    43   20   22 1    
    44   22   23 1    
    45   22   24 1    
    46   22   90 1    
    47   23   91 1    
    48   23   92 1    
    49   23   93 1    
    50   24   25 am   BACKBONE|DICT|INTERRES
    51   24   94 1    
    52   25   26 2    
    53   25   27 1    
    54   27   28 1    
    55   27   29 1    
    56   27   95 1    
    57   28   96 1    
    58   28   97 1    
    59   28   98 1    
    60   29   30 am   BACKBONE|DICT|INTERRES
    61   29   99 1    
    62   30   31 2    
    63   30   32 1    
    64   32   33 1    
    65   32   34 1    
    66   32  100 1    
    67   33  101 1    
    68   33  102 1    
    69   33  103 1    
    70   34   35 am   BACKBONE|DICT|INTERRES
    71   34  104 1    
    72   35   36 2    
    73   37   38 2    
    74   37   39 am   BACKBONE|DICT|INTERRES
    75   39   40 1    
    76   39  105 1    
    77   40   41 1    
    78   40   42 1    
    79   40  106 1    
    80   41  107 1    
    81   41  108 1    
    82   41  109 1    
    83   42   43 2    
    84   42   44 am   BACKBONE|DICT|INTERRES
    85   44   45 1    
    86   44  110 1    
    87   45   46 1    
    88   45   47 1    
    89   45  111 1    
    90   46  112 1    
    91   46  113 1    
    92   46  114 1    
    93   47   48 2    
    94   47   49 am   BACKBONE|DICT|INTERRES
    95   49   50 1    
    96   49  115 1    
    97   50   51 1    
    98   50   52 1    
    99   50  116 1    
   100   51  117 1    
   101   51  118 1    
   102   51  119 1    
   103   52   53 2    
   104   52   54 am   BACKBONE|DICT|INTERRES
   105   54   55 1    
   106   54  120 1    
   107   55   56 1    
   108   55   57 1    
   109   55  121 1    
   110   56  122 1    
   111   56  123 1    
   112   56  124 1    
   113   57   58 2    
   114   57   59 am   BACKBONE|DICT|INTERRES
   115   59   60 1    
   116   59  125 1    
   117   60   61 1    
   118   60   62 1    
   119   60  126 1    
   120   61  127 1    
   121   61  128 1    
   122   61  129 1    
   123   62   63 2    
   124   62   64 am   BACKBONE|DICT|INTERRES
   125   64   65 1    
   126   64  130 1    
   127   65   66 1    
   128   65   69 1    
   129   65  131 1    
   130   66   67 am   BACKBONE|DICT|INTERRES
   131   66   68 2    
   132   67  132 1    
   133   67  133 1    
   134   69   70 1    
   135   69  134 1    
   136   69  135 1    
   137   70   71 1    
   138   71  136 1    
   139   71  137 1    
@<TRIPOS>SUBSTRUCTURE
     1 UNK         1 GROUP             0       ****    0 ROOT    
