@<TRIPOS>MOLECULE
3R136
137   139    1
SMALL
USER_CHARGES


@<TRIPOS>ATOM
      1 CA         32.8738   20.7726   -3.8708 C.3       0 UNK        -0.1979 
      2 C          33.1987   21.3501   -2.5007 C.2       0 UNK         0.4864 
      3 O          34.3341   21.2248   -2.0394 O.2       0 UNK        -0.5359 
      4 N          32.2137   21.9808   -1.8519 N.am      1 UNK        -0.4318 
      5 CA         32.3498   22.6220   -0.5449 C.3       1 UNK         0.0824 
      6 C6         32.3745   21.6006    0.6307 C.3       12 UNK        -0.0944 
      7 S7         32.4237   22.3689    2.2911 S.3       12 UNK        -0.2672 
      8 C8         30.8170   21.8446    2.9919 C.3       12 UNK         0.0333 
      9 C9         30.2374   22.7833    4.0524 C.ar      12 UNK        -0.0807 
     10 C10        31.0444   23.6037    4.8521 C.ar      12 UNK        -0.0894 
     11 C11        30.4729   24.4722    5.7874 C.ar      12 UNK        -0.0804 
     12 C12        29.0863   24.4873    5.9605 C.ar      12 UNK        -0.0824 
     13 C13        28.2685   23.6650    5.1825 C.ar      12 UNK        -0.0762 
     14 C14        28.8497   22.8189    4.2327 C.ar      12 UNK        -0.0782 
     15 C15        26.7584   23.6781    5.3700 C.3       12 UNK         0.0230 
     16 S16        25.9503   24.9154    4.3046 S.3       12 UNK        -0.2608 
     17 C17        26.0940   26.4470    5.2927 C.3       12 UNK        -0.0989 
     18 CA         27.0177   27.4980    4.6310 C.3       5 UNK         0.0716 
     19 N          26.5635   27.8549    3.2805 N.am      5 UNK        -0.4135 
     20 C          27.1216   28.7591    2.4648 C.2       4 UNK         0.5031 
     21 O          28.0860   29.4675    2.7627 O.2       4 UNK        -0.5229 
     22 CA         26.5327   28.8683    1.0563 C.3       4 UNK         0.0329 
     23 CB         26.0979   30.3141    0.7416 C.3       4 UNK        -0.2001 
     24 N          27.5584   28.3920    0.1322 N.am      4 UNK        -0.4303 
     25 C          27.3918   28.1183   -1.1687 C.2       3 UNK         0.5044 
     26 O          26.3514   28.3249   -1.7939 O.2       3 UNK        -0.5152 
     27 CA         28.5734   27.4361   -1.8753 C.3       3 UNK         0.0319 
     28 CB         29.7534   28.4030   -2.0661 C.3       3 UNK        -0.2001 
     29 N          29.0047   26.2808   -1.0917 N.am      3 UNK        -0.4354 
     30 C          28.4727   25.0568   -1.1825 C.2       2 UNK         0.4964 
     31 O          27.7174   24.6974   -2.0878 O.2       2 UNK        -0.5047 
     32 CA         28.8256   24.0767   -0.0503 C.3       2 UNK         0.0288 
     33 CB         27.6376   23.1680    0.3143 C.3       2 UNK        -0.2113 
     34 N          29.9926   23.2460   -0.3430 N.am      2 UNK        -0.4145 
     35 C          31.2548   23.6931   -0.4239 C.2       1 UNK         0.5006 
     36 O          31.5717   24.8817   -0.4033 O.2       1 UNK        -0.5103 
     37 C          27.1757   28.7399    5.5293 C.2       5 UNK         0.5055 
     38 O          26.1927   29.4455    5.7630 O.2       5 UNK        -0.5220 
     39 N          28.4174   29.0023    5.9621 N.am      6 UNK        -0.4450 
     40 CA         28.9073   30.1417    6.7532 C.3       6 UNK         0.0367 
     41 CB         28.2188   30.2004    8.1310 C.3       6 UNK        -0.1929 
     42 C          28.8560   31.5157    6.0517 C.2       6 UNK         0.5070 
     43 O          29.6554   32.3856    6.3992 O.2       6 UNK        -0.5237 
     44 N          27.9314   31.7080    5.1041 N.am      7 UNK        -0.4739 
     45 CA         27.7321   32.9534    4.3639 C.3       7 UNK         0.0276 
     46 CB         26.3259   32.9564    3.7451 C.3       7 UNK        -0.1927 
     47 C          28.8029   33.1956    3.2885 C.2       7 UNK         0.5013 
     48 O          29.2466   34.3349    3.1348 O.2       7 UNK        -0.5193 
     49 N          29.1940   32.1410    2.5605 N.am      8 UNK        -0.4253 
     50 CA         30.2487   32.1985    1.5477 C.3       8 UNK         0.0242 
     51 CB         30.0039   31.1062    0.4937 C.3       8 UNK        -0.2000 
     52 C          31.6247   31.9959    2.1923 C.2       8 UNK         0.4948 
     53 O          31.7379   31.2559    3.1711 O.2       8 UNK        -0.5275 
     54 N          32.6647   32.5779    1.5784 N.am      9 UNK        -0.4246 
     55 CA         34.0696   32.3926    1.9694 C.3       9 UNK         0.0261 
     56 CB         34.9568   33.3590    1.1680 C.3       9 UNK        -0.1959 
     57 C          34.5636   30.9416    1.8053 C.2       9 UNK         0.5033 
     58 O          35.4303   30.5056    2.5635 O.2       9 UNK        -0.5390 
     59 N          33.9792   30.2160    0.8417 N.am      10 UNK        -0.4215 
     60 CA         34.1743   28.7799    0.6291 C.3       10 UNK         0.0240 
     61 CB         33.7719   28.4374   -0.8161 C.3       10 UNK        -0.1982 
     62 C          33.3891   27.8991    1.6227 C.2       10 UNK         0.4970 
     63 O          33.6414   26.6952    1.6669 O.2       10 UNK        -0.4916 
     64 N          32.4620   28.4952    2.3864 N.am      11 UNK        -0.4279 
     65 CA         31.4961   27.8207    3.2595 C.3       11 UNK         0.1003 
     66 C          30.4333   27.0164    2.4537 C.2       11 UNK         0.5709 
     67 N          29.8431   25.9805    3.0269 N.am      11 UNK        -0.7358 
     68 O          30.0752   27.3695    1.3307 O.2       11 UNK        -0.4999 
     69 C69        32.1857   27.0535    4.4300 C.3       12 UNK        -0.0954 
     70 S70        31.2276   27.1248    5.9816 S.3       12 UNK        -0.2268 
     71 C71        31.3479   25.4151    6.5965 C.3       12 UNK         0.0203 
     72 H72        33.5127   21.2241   -4.6293 H         1 UNK         0.0888 
     73 H73        33.0476   19.6969   -3.8749 H         1 UNK         0.0888 
     74 H74        31.8360   20.9488   -4.1532 H         1 UNK         0.0888 
     75 H75        31.3147   22.0927   -2.3010 H         1 UNK         0.3017 
     76 H76        33.3011   23.1597   -0.5325 H         1 UNK         0.0873 
     77 H77        33.2597   20.9692    0.5417 H         1 UNK         0.0745 
     78 H78        31.5268   20.9175    0.5625 H         1 UNK         0.0745 
     79 H79        30.0962   21.7518    2.1792 H         1 UNK         0.0705 
     80 H80        30.9294   20.8488    3.4224 H         1 UNK         0.0705 
     81 H81        32.1188   23.5890    4.7345 H         1 UNK         0.1334 
     82 H82        28.6456   25.1508    6.6918 H         1 UNK         0.1417 
     83 H83        28.2140   22.1842    3.6304 H         1 UNK         0.1562 
     84 H84        26.5011   23.8518    6.4159 H         1 UNK         0.0748 
     85 H85        26.3517   22.6956    5.1251 H         1 UNK         0.0748 
     86 H86        26.4494   26.2033    6.2953 H         1 UNK         0.0940 
     87 H87        25.0900   26.8551    5.4264 H         1 UNK         0.0940 
     88 H88        28.0005   27.0423    4.5222 H         1 UNK         0.0703 
     89 H89        25.7771   27.3201    2.9426 H         1 UNK         0.3081 
     90 H90        25.6638   28.2125    0.9717 H         1 UNK         0.0719 
     91 H91        26.9188   31.0217    0.8524 H         1 UNK         0.0809 
     92 H92        25.7087   30.4118   -0.2712 H         1 UNK         0.0809 
     93 H93        25.3023   30.6290    1.4171 H         1 UNK         0.0809 
     94 H94        28.4523   28.1722    0.5668 H         1 UNK         0.2990 
     95 H95        28.2400   27.1098   -2.8628 H         1 UNK         0.0690 
     96 H96        30.5476   27.9404   -2.6523 H         1 UNK         0.0788 
     97 H97        30.1839   28.7104   -1.1137 H         1 UNK         0.0788 
     98 H98        29.4409   29.3049   -2.5941 H         1 UNK         0.0788 
     99 H99        29.6390   26.4775   -0.3205 H         1 UNK         0.2993 
    100 H100       29.0598   24.6671    0.8342 H         1 UNK         0.0949 
    101 H101       26.7526   23.7607    0.5508 H         1 UNK         0.0767 
    102 H102       27.3724   22.4982   -0.5047 H         1 UNK         0.0767 
    103 H103       27.8569   22.5569    1.1893 H         1 UNK         0.0767 
    104 H104       29.8254   22.2529   -0.4056 H         1 UNK         0.3013 
    105 H105       29.1501   28.3672    5.6737 H         1 UNK         0.3121 
    106 H106       29.9649   29.9361    6.9275 H         1 UNK         0.0774 
    107 H107       28.6675   30.9734    8.7562 H         1 UNK         0.0815 
    108 H108       27.1566   30.4313    8.0470 H         1 UNK         0.0815 
    109 H109       28.3173   29.2551    8.6645 H         1 UNK         0.0815 
    110 H110       27.2931   30.9444    4.9121 H         1 UNK         0.2987 
    111 H111       27.7883   33.7829    5.0726 H         1 UNK         0.0949 
    112 H112       26.1856   32.1168    3.0657 H         1 UNK         0.0806 
    113 H113       25.5552   32.8964    4.5138 H         1 UNK         0.0806 
    114 H114       26.1485   33.8713    3.1781 H         1 UNK         0.0806 
    115 H115       28.8171   31.2197    2.7740 H         1 UNK         0.3010 
    116 H116       30.2259   33.1713    1.0514 H         1 UNK         0.0829 
    117 H117       29.0517   31.2492   -0.0151 H         1 UNK         0.0813 
    118 H118       30.7778   31.1165   -0.2744 H         1 UNK         0.0813 
    119 H119       29.9999   30.1117    0.9410 H         1 UNK         0.0813 
    120 H120       32.4915   33.1711    0.7787 H         1 UNK         0.3038 
    121 H121       34.1554   32.6473    3.0280 H         1 UNK         0.0769 
    122 H122       34.6738   34.3970    1.3439 H         1 UNK         0.0811 
    123 H123       34.8972   33.1702    0.0954 H         1 UNK         0.0811 
    124 H124       36.0037   33.2579    1.4584 H         1 UNK         0.0811 
    125 H125       33.2986   30.6721    0.2527 H         1 UNK         0.3204 
    126 H126       35.2342   28.5484    0.7546 H         1 UNK         0.0748 
    127 H127       34.3615   29.0018   -1.5388 H         1 UNK         0.0771 
    128 H128       33.9315   27.3785   -1.0260 H         1 UNK         0.0771 
    129 H129       32.7179   28.6467   -1.0017 H         1 UNK         0.0771 
    130 H130       32.3425   29.4993    2.3330 H         1 UNK         0.2980 
    131 H131       30.9291   28.6458    3.6919 H         1 UNK         0.0545 
    132 H132       29.1206   25.4837    2.5385 H         1 UNK         0.3459 
    133 H133       30.1397   25.6566    3.9364 H         1 UNK         0.3459 
    134 H134       32.4090   26.0236    4.1489 H         1 UNK         0.0616 
    135 H135       33.1521   27.5069    4.6561 H         1 UNK         0.0616 
    136 H136       31.0331   25.3935    7.6408 H         1 UNK         0.0634 
    137 H137       32.3910   25.0948    6.5835 H         1 UNK         0.0634 
@<TRIPOS>BOND
     1    1    2 1    
     2    1   72 1    
     3    1   73 1    
     4    1   74 1    
     5    2    3 2    
     6    2    4 am   BACKBONE|DICT|INTERRES
     7    4    5 1    
     8    4   75 1    
     9    5    6 1    
    10    5   35 1    
    11    5   76 1    
    12    6    7 1    
    13    6   77 1    
    14    6   78 1    
    15    7    8 1    
    16    8    9 1    
    17    8   79 1    
    18    8   80 1    
    19    9   10 ar   
    20    9   14 ar   
    21   10   11 ar   
    22   10   81 1    
    23   11   12 ar   
    24   11   71 1    
    25   12   13 ar   
    26   12   82 1    
    27   13   14 ar   
    28   13   15 1    
    29   14   83 1    
    30   15   16 1    
    31   15   84 1    
    32   15   85 1    
    33   16   17 1    
    34   17   18 1    
    35   17   86 1    
    36   17   87 1    
    37   18   19 1    
    38   18   37 1    
    39   18   88 1    
    40   19   20 am   BACKBONE|DICT|INTERRES
    41   19   89 1    
    42   20   21 2    
    43   20   22 1    
    44   22   23 1    
    45   22   24 1    
    46   22   90 1    
    47   23   91 1    
    48   23   92 1    
    49   23   93 1    
    50   24   25 am   BACKBONE|DICT|INTERRES
    51   24   94 1    
    52   25   26 2    
    53   25   27 1    
    54   27   28 1    
    55   27   29 1    
    56   27   95 1    
    57   28   96 1    
    58   28   97 1    
    59   28   98 1    
    60   29   30 am   BACKBONE|DICT|INTERRES
    61   29   99 1    
    62   30   31 2    
    63   30   32 1    
    64   32   33 1    
    65   32   34 1    
    66   32  100 1    
    67   33  101 1    
    68   33  102 1    
    69   33  103 1    
    70   34   35 am   BACKBONE|DICT|INTERRES
    71   34  104 1    
    72   35   36 2    
    73   37   38 2    
    74   37   39 am   BACKBONE|DICT|INTERRES
    75   39   40 1    
    76   39  105 1    
    77   40   41 1    
    78   40   42 1    
    79   40  106 1    
    80   41  107 1    
    81   41  108 1    
    82   41  109 1    
    83   42   43 2    
    84   42   44 am   BACKBONE|DICT|INTERRES
    85   44   45 1    
    86   44  110 1    
    87   45   46 1    
    88   45   47 1    
    89   45  111 1    
    90   46  112 1    
    91   46  113 1    
    92   46  114 1    
    93   47   48 2    
    94   47   49 am   BACKBONE|DICT|INTERRES
    95   49   50 1    
    96   49  115 1    
    97   50   51 1    
    98   50   52 1    
    99   50  116 1    
   100   51  117 1    
   101   51  118 1    
   102   51  119 1    
   103   52   53 2    
   104   52   54 am   BACKBONE|DICT|INTERRES
   105   54   55 1    
   106   54  120 1    
   107   55   56 1    
   108   55   57 1    
   109   55  121 1    
   110   56  122 1    
   111   56  123 1    
   112   56  124 1    
   113   57   58 2    
   114   57   59 am   BACKBONE|DICT|INTERRES
   115   59   60 1    
   116   59  125 1    
   117   60   61 1    
   118   60   62 1    
   119   60  126 1    
   120   61  127 1    
   121   61  128 1    
   122   61  129 1    
   123   62   63 2    
   124   62   64 am   BACKBONE|DICT|INTERRES
   125   64   65 1    
   126   64  130 1    
   127   65   66 1    
   128   65   69 1    
   129   65  131 1    
   130   66   67 am   BACKBONE|DICT|INTERRES
   131   66   68 2    
   132   67  132 1    
   133   67  133 1    
   134   69   70 1    
   135   69  134 1    
   136   69  135 1    
   137   70   71 1    
   138   71  136 1    
   139   71  137 1    
@<TRIPOS>SUBSTRUCTURE
     1 UNK         1 GROUP             0       ****    0 ROOT    
