@<TRIPOS>MOLECULE
3R136
137   139    1
SMALL
USER_CHARGES


@<TRIPOS>ATOM
      1 CA         34.4835   24.6413   -3.0827 C.3       0 UNK        -0.1979 
      2 C          33.3754   25.2107   -2.2092 C.2       0 UNK         0.4864 
      3 O          32.8712   26.2969   -2.4945 O.2       0 UNK        -0.5359 
      4 N          33.0011   24.4891   -1.1452 N.am      1 UNK        -0.4318 
      5 CA         31.9161   24.8507   -0.2281 C.3       1 UNK         0.0824 
      6 C6         32.0208   24.0554    1.1031 C.3       12 UNK        -0.0944 
      7 S7         31.7443   25.1231    2.5444 S.3       12 UNK        -0.2672 
      8 C8         30.0951   24.6280    3.1200 C.3       12 UNK         0.0333 
      9 C9         29.6925   25.4960    4.3012 C.ar      12 UNK        -0.0807 
     10 C10        30.2165   25.2379    5.5714 C.ar      12 UNK        -0.0894 
     11 C11        29.9325   26.0901    6.6425 C.ar      12 UNK        -0.0804 
     12 C12        29.0866   27.1860    6.4461 C.ar      12 UNK        -0.0824 
     13 C13        28.5524   27.4502    5.1820 C.ar      12 UNK        -0.0762 
     14 C14        28.8548   26.5987    4.1141 C.ar      12 UNK        -0.0782 
     15 C15        27.7181   28.6986    4.9470 C.3       12 UNK         0.0230 
     16 S16        25.9852   28.3038    4.5500 S.3       12 UNK        -0.2608 
     17 C17        25.6506   29.6198    3.3331 C.3       12 UNK        -0.0989 
     18 CA         26.0630   29.1598    1.9072 C.3       5 UNK         0.0716 
     19 N          25.2330   28.0802    1.3620 N.am      5 UNK        -0.4135 
     20 C          23.9254   28.1377    1.0646 C.2       4 UNK         0.5031 
     21 O          23.2324   29.1417    1.2334 O.2       4 UNK        -0.5229 
     22 CA         23.2735   26.8868    0.4369 C.3       4 UNK         0.0329 
     23 CB         22.7888   27.1927   -0.9912 C.3       4 UNK        -0.2001 
     24 N          24.1620   25.7229    0.3878 N.am      4 UNK        -0.4303 
     25 C          24.4744   24.9420    1.4314 C.2       3 UNK         0.5044 
     26 O          23.9577   25.0468    2.5436 O.2       3 UNK        -0.5152 
     27 CA         25.5737   23.8852    1.2037 C.3       3 UNK         0.0319 
     28 CB         24.9471   22.5039    0.9544 C.3       3 UNK        -0.2001 
     29 N          26.5034   24.1990    0.1081 N.am      3 UNK        -0.4354 
     30 C          27.3136   25.2659    0.0702 C.2       2 UNK         0.4964 
     31 O          27.3318   26.1428    0.9350 O.2       2 UNK        -0.5047 
     32 CA         28.2199   25.4102   -1.1537 C.3       2 UNK         0.0288 
     33 CB         27.8348   26.6556   -1.9681 C.3       2 UNK        -0.2113 
     34 N          29.5996   25.5398   -0.6895 N.am      2 UNK        -0.4145 
     35 C          30.5491   24.6215   -0.9010 C.2       1 UNK         0.5006 
     36 O          30.3754   23.5962   -1.5669 O.2       1 UNK        -0.5103 
     37 C          26.2828   30.3128    0.9051 C.2       5 UNK         0.5055 
     38 O          26.5060   31.4544    1.3112 O.2       5 UNK        -0.5220 
     39 N          26.2955   29.9777   -0.3943 N.am      6 UNK        -0.4450 
     40 CA         26.7834   30.8478   -1.4699 C.3       6 UNK         0.0367 
     41 CB         26.3015   30.2998   -2.8230 C.3       6 UNK        -0.1929 
     42 C          28.3202   30.9836   -1.4564 C.2       6 UNK         0.5070 
     43 O          28.8467   31.9828   -1.9458 O.2       6 UNK        -0.5237 
     44 N          29.0028   29.9848   -0.8844 N.am      7 UNK        -0.4739 
     45 CA         30.4373   29.9350   -0.6458 C.3       7 UNK         0.0276 
     46 CB         31.1429   29.2423   -1.8248 C.3       7 UNK        -0.1927 
     47 C          30.6302   29.1612    0.6612 C.2       7 UNK         0.5013 
     48 O          30.2943   27.9755    0.7072 O.2       7 UNK        -0.5193 
     49 N          31.1171   29.8516    1.6999 N.am      8 UNK        -0.4253 
     50 CA         31.3411   29.2870    3.0351 C.3       8 UNK         0.0242 
     51 CB         31.1534   30.3938    4.0862 C.3       8 UNK        -0.2000 
     52 C          32.7190   28.6219    3.1938 C.2       8 UNK         0.4948 
     53 O          32.9122   27.8836    4.1595 O.2       8 UNK        -0.5275 
     54 N          33.6518   28.9028    2.2681 N.am      9 UNK        -0.4246 
     55 CA         35.0197   28.3743    2.1955 C.3       9 UNK         0.0261 
     56 CB         34.9973   26.9320    1.6390 C.3       9 UNK        -0.1959 
     57 C          35.7707   28.5248    3.5351 C.2       9 UNK         0.5033 
     58 O          36.0155   29.6554    3.9609 O.2       9 UNK        -0.5390 
     59 N          36.0840   27.3991    4.1913 N.am      10 UNK        -0.4215 
     60 CA         36.7404   27.3276    5.4995 C.3       10 UNK         0.0240 
     61 CB         37.0707   25.8596    5.8155 C.3       10 UNK        -0.1982 
     62 C          35.9363   27.9562    6.6543 C.2       10 UNK         0.4970 
     63 O          36.5487   28.3738    7.6383 O.2       10 UNK        -0.4916 
     64 N          34.6047   28.0255    6.5240 N.am      11 UNK        -0.4279 
     65 CA         33.7136   28.7080    7.4747 C.3       11 UNK         0.1003 
     66 C          33.6116   30.2433    7.2315 C.2       11 UNK         0.5709 
     67 N          34.2297   30.8097    6.1994 N.am      11 UNK        -0.7358 
     68 O          32.9679   30.9435    8.0093 O.2       11 UNK        -0.4999 
     69 C69        32.3086   28.0504    7.5290 C.3       12 UNK        -0.0954 
     70 S70        32.3584   26.2825    7.9816 S.3       12 UNK        -0.2268 
     71 C71        30.5845   25.8582    7.9983 C.3       12 UNK         0.0203 
     72 H72        35.3259   25.3315   -3.1166 H         1 UNK         0.0888 
     73 H73        34.8452   23.6829   -2.7105 H         1 UNK         0.0888 
     74 H74        34.1209   24.4951   -4.0997 H         1 UNK         0.0888 
     75 H75        33.4251   23.5866   -0.9869 H         1 UNK         0.3017 
     76 H76        32.0209   25.9197   -0.0248 H         1 UNK         0.0873 
     77 H77        33.0252   23.6476    1.2286 H         1 UNK         0.0745 
     78 H78        31.3557   23.1897    1.1380 H         1 UNK         0.0745 
     79 H79        30.1046   23.5767    3.4111 H         1 UNK         0.0705 
     80 H80        29.3769   24.7269    2.3053 H         1 UNK         0.0705 
     81 H81        30.8904   24.4042    5.7143 H         1 UNK         0.1334 
     82 H82        28.8774   27.8558    7.2690 H         1 UNK         0.1417 
     83 H83        28.4692   26.8188    3.1279 H         1 UNK         0.1562 
     84 H84        28.1754   29.2593    4.1308 H         1 UNK         0.0748 
     85 H85        27.7401   29.3575    5.8164 H         1 UNK         0.0748 
     86 H86        26.1906   30.5159    3.6446 H         1 UNK         0.0940 
     87 H87        24.5937   29.8858    3.3720 H         1 UNK         0.0940 
     88 H88        27.0582   28.7203    1.9927 H         1 UNK         0.0703 
     89 H89        25.7336   27.2099    1.2081 H         1 UNK         0.3081 
     90 H90        22.4037   26.6350    1.0474 H         1 UNK         0.0719 
     91 H91        23.6143   27.4621   -1.6512 H         1 UNK         0.0809 
     92 H92        22.2744   26.3363   -1.4278 H         1 UNK         0.0809 
     93 H93        22.0838   28.0253   -0.9962 H         1 UNK         0.0809 
     94 H94        24.6214   25.5395   -0.4921 H         1 UNK         0.2990 
     95 H95        26.1604   23.8328    2.1235 H         1 UNK         0.0690 
     96 H96        25.7091   21.7266    0.8931 H         1 UNK         0.0788 
     97 H97        24.3688   22.4833    0.0297 H         1 UNK         0.0788 
     98 H98        24.2725   22.2286    1.7665 H         1 UNK         0.0788 
     99 H99        26.5424   23.5311   -0.6492 H         1 UNK         0.2993 
    100 H100       28.0996   24.5349   -1.7956 H         1 UNK         0.0949 
    101 H101       28.4957   26.7867   -2.8253 H         1 UNK         0.0767 
    102 H102       26.8167   26.5755   -2.3509 H         1 UNK         0.0767 
    103 H103       27.8898   27.5595   -1.3654 H         1 UNK         0.0767 
    104 H104       29.7999   26.3422   -0.0924 H         1 UNK         0.3013 
    105 H105       26.0625   29.0288   -0.6449 H         1 UNK         0.3121 
    106 H106       26.3593   31.8448   -1.3312 H         1 UNK         0.0774 
    107 H107       26.6169   30.9513   -3.6393 H         1 UNK         0.0815 
    108 H108       26.7038   29.3070   -3.0274 H         1 UNK         0.0815 
    109 H109       25.2138   30.2379   -2.8623 H         1 UNK         0.0815 
    110 H110       28.4886   29.2147   -0.4814 H         1 UNK         0.2987 
    111 H111       30.8333   30.9472   -0.5355 H         1 UNK         0.0949 
    112 H112       30.7621   28.2331   -1.9898 H         1 UNK         0.0806 
    113 H113       31.0107   29.8030   -2.7501 H         1 UNK         0.0806 
    114 H114       32.2153   29.1577   -1.6448 H         1 UNK         0.0806 
    115 H115       31.3326   30.8316    1.5816 H         1 UNK         0.3010 
    116 H116       30.5953   28.5135    3.2216 H         1 UNK         0.0829 
    117 H117       30.1720   30.8607    4.0036 H         1 UNK         0.0813 
    118 H118       31.2315   29.9881    5.0953 H         1 UNK         0.0813 
    119 H119       31.9083   31.1753    3.9913 H         1 UNK         0.0813 
    120 H120       33.4005   29.5571    1.5422 H         1 UNK         0.3038 
    121 H121       35.5557   28.9960    1.4769 H         1 UNK         0.0769 
    122 H122       34.4559   26.2472    2.2915 H         1 UNK         0.0811 
    123 H123       36.0072   26.5419    1.5057 H         1 UNK         0.0811 
    124 H124       34.5129   26.8983    0.6628 H         1 UNK         0.0811 
    125 H125       35.8007   26.5219    3.7795 H         1 UNK         0.3204 
    126 H126       37.6790   27.8804    5.4236 H         1 UNK         0.0748 
    127 H127       37.5919   25.7731    6.7701 H         1 UNK         0.0771 
    128 H128       36.1690   25.2488    5.8806 H         1 UNK         0.0771 
    129 H129       37.7192   25.4244    5.0548 H         1 UNK         0.0771 
    130 H130       34.1603   27.7136    5.6645 H         1 UNK         0.2980 
    131 H131       34.1432   28.6045    8.4727 H         1 UNK         0.0545 
    132 H132       34.1566   31.8062    6.0745 H         1 UNK         0.3459 
    133 H133       34.7825   30.2615    5.5515 H         1 UNK         0.3459 
    134 H134       31.8143   28.1484    6.5623 H         1 UNK         0.0616 
    135 H135       31.6723   28.5602    8.2546 H         1 UNK         0.0616 
    136 H136       30.4738   24.8101    8.2794 H         1 UNK         0.0634 
    137 H137       30.0852   26.4398    8.7747 H         1 UNK         0.0634 
@<TRIPOS>BOND
     1    1    2 1    
     2    1   72 1    
     3    1   73 1    
     4    1   74 1    
     5    2    3 2    
     6    2    4 am   BACKBONE|DICT|INTERRES
     7    4    5 1    
     8    4   75 1    
     9    5    6 1    
    10    5   35 1    
    11    5   76 1    
    12    6    7 1    
    13    6   77 1    
    14    6   78 1    
    15    7    8 1    
    16    8    9 1    
    17    8   79 1    
    18    8   80 1    
    19    9   10 ar   
    20    9   14 ar   
    21   10   11 ar   
    22   10   81 1    
    23   11   12 ar   
    24   11   71 1    
    25   12   13 ar   
    26   12   82 1    
    27   13   14 ar   
    28   13   15 1    
    29   14   83 1    
    30   15   16 1    
    31   15   84 1    
    32   15   85 1    
    33   16   17 1    
    34   17   18 1    
    35   17   86 1    
    36   17   87 1    
    37   18   19 1    
    38   18   37 1    
    39   18   88 1    
    40   19   20 am   BACKBONE|DICT|INTERRES
    41   19   89 1    
    42   20   21 2    
    43   20   22 1    
    44   22   23 1    
    45   22   24 1    
    46   22   90 1    
    47   23   91 1    
    48   23   92 1    
    49   23   93 1    
    50   24   25 am   BACKBONE|DICT|INTERRES
    51   24   94 1    
    52   25   26 2    
    53   25   27 1    
    54   27   28 1    
    55   27   29 1    
    56   27   95 1    
    57   28   96 1    
    58   28   97 1    
    59   28   98 1    
    60   29   30 am   BACKBONE|DICT|INTERRES
    61   29   99 1    
    62   30   31 2    
    63   30   32 1    
    64   32   33 1    
    65   32   34 1    
    66   32  100 1    
    67   33  101 1    
    68   33  102 1    
    69   33  103 1    
    70   34   35 am   BACKBONE|DICT|INTERRES
    71   34  104 1    
    72   35   36 2    
    73   37   38 2    
    74   37   39 am   BACKBONE|DICT|INTERRES
    75   39   40 1    
    76   39  105 1    
    77   40   41 1    
    78   40   42 1    
    79   40  106 1    
    80   41  107 1    
    81   41  108 1    
    82   41  109 1    
    83   42   43 2    
    84   42   44 am   BACKBONE|DICT|INTERRES
    85   44   45 1    
    86   44  110 1    
    87   45   46 1    
    88   45   47 1    
    89   45  111 1    
    90   46  112 1    
    91   46  113 1    
    92   46  114 1    
    93   47   48 2    
    94   47   49 am   BACKBONE|DICT|INTERRES
    95   49   50 1    
    96   49  115 1    
    97   50   51 1    
    98   50   52 1    
    99   50  116 1    
   100   51  117 1    
   101   51  118 1    
   102   51  119 1    
   103   52   53 2    
   104   52   54 am   BACKBONE|DICT|INTERRES
   105   54   55 1    
   106   54  120 1    
   107   55   56 1    
   108   55   57 1    
   109   55  121 1    
   110   56  122 1    
   111   56  123 1    
   112   56  124 1    
   113   57   58 2    
   114   57   59 am   BACKBONE|DICT|INTERRES
   115   59   60 1    
   116   59  125 1    
   117   60   61 1    
   118   60   62 1    
   119   60  126 1    
   120   61  127 1    
   121   61  128 1    
   122   61  129 1    
   123   62   63 2    
   124   62   64 am   BACKBONE|DICT|INTERRES
   125   64   65 1    
   126   64  130 1    
   127   65   66 1    
   128   65   69 1    
   129   65  131 1    
   130   66   67 am   BACKBONE|DICT|INTERRES
   131   66   68 2    
   132   67  132 1    
   133   67  133 1    
   134   69   70 1    
   135   69  134 1    
   136   69  135 1    
   137   70   71 1    
   138   71  136 1    
   139   71  137 1    
@<TRIPOS>SUBSTRUCTURE
     1 UNK         1 GROUP             0       ****    0 ROOT    
