@<TRIPOS>MOLECULE
3R136
137   139    1
SMALL
USER_CHARGES


@<TRIPOS>ATOM
      1 CA         33.1062   27.5111    0.5784 C.3       0 UNK        -0.1979 
      2 C          32.2841   26.2856    0.2084 C.2       0 UNK         0.4864 
      3 O          32.8417   25.3005   -0.2763 O.2       0 UNK        -0.5359 
      4 N          30.9655   26.3466    0.4353 N.am      1 UNK        -0.4318 
      5 CA         29.9798   25.2968    0.1534 C.3       1 UNK         0.0824 
      6 C6         30.2531   23.9679    0.9141 C.3       12 UNK        -0.0944 
      7 S7         28.7171   23.1152    1.4187 S.3       12 UNK        -0.2672 
      8 C8         29.2158   22.3479    2.9948 C.3       12 UNK         0.0333 
      9 C9         29.1496   23.3401    4.1462 C.ar      12 UNK        -0.0807 
     10 C10        30.2786   24.0746    4.5138 C.ar      12 UNK        -0.0894 
     11 C11        30.2129   25.0211    5.5396 C.ar      12 UNK        -0.0804 
     12 C12        29.0041   25.2126    6.2195 C.ar      12 UNK        -0.0824 
     13 C13        27.8722   24.4562    5.8882 C.ar      12 UNK        -0.0762 
     14 C14        27.9576   23.5178    4.8522 C.ar      12 UNK        -0.0782 
     15 C15        26.5753   24.6297    6.6778 C.3       12 UNK         0.0230 
     16 S16        25.0736   24.6613    5.6356 S.3       12 UNK        -0.2608 
     17 C17        25.1994   26.3027    4.8506 C.3       12 UNK        -0.0989 
     18 CA         26.0025   26.2789    3.5215 C.3       5 UNK         0.0716 
     19 N          25.4955   25.3304    2.5248 N.am      5 UNK        -0.4135 
     20 C          24.3350   25.3945    1.8602 C.2       4 UNK         0.5031 
     21 O          23.4850   26.2735    2.0165 O.2       4 UNK        -0.5229 
     22 CA         24.1162   24.2931    0.8031 C.3       4 UNK         0.0329 
     23 CB         22.6805   23.7422    0.8601 C.3       4 UNK        -0.2001 
     24 N          24.4082   24.7328   -0.5680 N.am      4 UNK        -0.4303 
     25 C          25.5362   25.3242   -0.9844 C.2       3 UNK         0.5044 
     26 O          26.4779   25.6193   -0.2382 O.2       3 UNK        -0.5152 
     27 CA         25.6431   25.6404   -2.4860 C.3       3 UNK         0.0319 
     28 CB         24.6301   26.7102   -2.9297 C.3       3 UNK        -0.2001 
     29 N          26.9974   26.1272   -2.6948 N.am      3 UNK        -0.4354 
     30 C          27.8054   25.9279   -3.7376 C.2       2 UNK         0.4964 
     31 O          27.4451   25.4528   -4.8147 O.2       2 UNK        -0.5047 
     32 CA         29.2856   26.3038   -3.5116 C.3       2 UNK         0.0288 
     33 CB         29.5725   27.7132   -4.0544 C.3       2 UNK        -0.2113 
     34 N          29.6813   26.2458   -2.0952 N.am      2 UNK        -0.4145 
     35 C          29.7431   25.1190   -1.3649 C.2       1 UNK         0.5006 
     36 O          29.5994   23.9951   -1.8511 O.2       1 UNK        -0.5103 
     37 C          26.2621   27.6893    2.9498 C.2       5 UNK         0.5055 
     38 O          26.1588   28.6757    3.6836 O.2       5 UNK        -0.5220 
     39 N          26.6625   27.7739    1.6716 N.am      6 UNK        -0.4450 
     40 CA         27.2357   28.9800    1.0694 C.3       6 UNK         0.0367 
     41 CB         27.1327   28.8976   -0.4621 C.3       6 UNK        -0.1929 
     42 C          28.6896   29.1325    1.5453 C.2       6 UNK         0.5070 
     43 O          29.6250   28.7815    0.8209 O.2       6 UNK        -0.5237 
     44 N          28.8522   29.5798    2.7943 N.am      7 UNK        -0.4739 
     45 CA         30.1238   29.6655    3.5094 C.3       7 UNK         0.0276 
     46 CB         29.8489   29.6535    5.0242 C.3       7 UNK        -0.1927 
     47 C          30.9758   30.8649    3.0618 C.2       7 UNK         0.5013 
     48 O          31.2770   31.7497    3.8667 O.2       7 UNK        -0.5193 
     49 N          31.3635   30.8649    1.7796 N.am      8 UNK        -0.4253 
     50 CA         32.3210   31.7966    1.1816 C.3       8 UNK         0.0242 
     51 CB         32.4905   31.4673   -0.3098 C.3       8 UNK        -0.2000 
     52 C          33.6688   31.7270    1.9173 C.2       8 UNK         0.4948 
     53 O          34.1907   30.6265    2.1149 O.2       8 UNK        -0.5275 
     54 N          34.1560   32.8896    2.3753 N.am      9 UNK        -0.4246 
     55 CA         35.3306   33.0670    3.2431 C.3       9 UNK         0.0261 
     56 CB         36.6276   32.7631    2.4627 C.3       9 UNK        -0.1959 
     57 C          35.2401   32.2760    4.5683 C.2       9 UNK         0.5033 
     58 O          36.2672   31.8283    5.0822 O.2       9 UNK        -0.5390 
     59 N          34.0101   32.0714    5.0710 N.am      10 UNK        -0.4215 
     60 CA         33.6503   31.2431    6.2303 C.3       10 UNK         0.0240 
     61 CB         34.1639   31.8828    7.5382 C.3       10 UNK        -0.1982 
     62 C          34.0722   29.7646    6.0814 C.2       10 UNK         0.4970 
     63 O          34.3359   29.1078    7.0897 O.2       10 UNK        -0.4916 
     64 N          34.1517   29.2819    4.8316 N.am      11 UNK        -0.4279 
     65 CA         34.7091   27.9790    4.4338 C.3       11 UNK         0.1003 
     66 C          36.2538   27.8603    4.6242 C.2       11 UNK         0.5709 
     67 N          36.9905   28.9415    4.8578 N.am      11 UNK        -0.7358 
     68 O          36.8091   26.7685    4.5244 O.2       11 UNK        -0.4999 
     69 C69        33.9367   26.7564    5.0131 C.3       12 UNK        -0.0954 
     70 S70        32.1780   26.7188    4.5363 S.3       12 UNK        -0.2268 
     71 C71        31.4676   25.7907    5.9352 C.3       12 UNK         0.0203 
     72 H72        34.0056   27.2107    1.1144 H         1 UNK         0.0888 
     73 H73        33.4104   28.0452   -0.3208 H         1 UNK         0.0888 
     74 H74        32.5506   28.1977    1.2168 H         1 UNK         0.0888 
     75 H75        30.5657   27.2227    0.7681 H         1 UNK         0.3017 
     76 H76        29.0472   25.7082    0.5422 H         1 UNK         0.0873 
     77 H77        30.8308   24.1829    1.8107 H         1 UNK         0.0745 
     78 H78        30.8751   23.2862    0.3312 H         1 UNK         0.0745 
     79 H79        30.2192   21.9291    2.9019 H         1 UNK         0.0705 
     80 H80        28.5539   21.5047    3.1982 H         1 UNK         0.0705 
     81 H81        31.2162   23.9174    3.9992 H         1 UNK         0.1334 
     82 H82        28.9519   25.9332    7.0244 H         1 UNK         0.1417 
     83 H83        27.0900   22.9290    4.5869 H         1 UNK         0.1562 
     84 H84        26.6064   25.5361    7.2845 H         1 UNK         0.0748 
     85 H85        26.4900   23.7975    7.3777 H         1 UNK         0.0748 
     86 H86        25.6528   26.9893    5.5681 H         1 UNK         0.0940 
     87 H87        24.1898   26.6780    4.6750 H         1 UNK         0.0940 
     88 H88        27.0035   25.9209    3.7585 H         1 UNK         0.0703 
     89 H89        26.1399   24.5949    2.2702 H         1 UNK         0.3081 
     90 H90        24.7940   23.4664    1.0269 H         1 UNK         0.0719 
     91 H91        21.9461   24.4971    0.5755 H         1 UNK         0.0809 
     92 H92        22.5557   22.8852    0.1979 H         1 UNK         0.0809 
     93 H93        22.4306   23.4095    1.8685 H         1 UNK         0.0809 
     94 H94        23.6868   24.5533   -1.2511 H         1 UNK         0.2990 
     95 H95        25.4908   24.7176   -3.0496 H         1 UNK         0.0690 
     96 H96        24.7200   27.6234   -2.3415 H         1 UNK         0.0788 
     97 H97        23.6055   26.3526   -2.8236 H         1 UNK         0.0788 
     98 H98        24.7710   26.9747   -3.9779 H         1 UNK         0.0788 
     99 H99        27.4202   26.4403   -1.8309 H         1 UNK         0.2993 
    100 H100       29.8950   25.5861   -4.0652 H         1 UNK         0.0949 
    101 H101       30.6294   27.9655   -3.9650 H         1 UNK         0.0767 
    102 H102       29.3123   27.7839   -5.1115 H         1 UNK         0.0767 
    103 H103       28.9982   28.4752   -3.5255 H         1 UNK         0.0767 
    104 H104       29.8576   27.1271   -1.6337 H         1 UNK         0.3013 
    105 H105       26.6901   26.9260    1.1094 H         1 UNK         0.3121 
    106 H106       26.6702   29.8554    1.3963 H         1 UNK         0.0774 
    107 H107       27.5214   29.8047   -0.9265 H         1 UNK         0.0815 
    108 H108       27.7041   28.0615   -0.8594 H         1 UNK         0.0815 
    109 H109       26.0976   28.7862   -0.7823 H         1 UNK         0.0815 
    110 H110       28.0167   29.7892    3.3283 H         1 UNK         0.2987 
    111 H111       30.7015   28.7714    3.2731 H         1 UNK         0.0949 
    112 H112       30.7817   29.6486    5.5888 H         1 UNK         0.0806 
    113 H113       29.2762   30.5263    5.3396 H         1 UNK         0.0806 
    114 H114       29.2948   28.7614    5.3177 H         1 UNK         0.0806 
    115 H115       31.0151   30.1157    1.1905 H         1 UNK         0.3010 
    116 H116       31.9070   32.8029    1.2730 H         1 UNK         0.0829 
    117 H117       31.5402   31.5260   -0.8409 H         1 UNK         0.0813 
    118 H118       33.1739   32.1699   -0.7886 H         1 UNK         0.0813 
    119 H119       32.8966   30.4664   -0.4587 H         1 UNK         0.0813 
    120 H120       33.6377   33.7343    2.1732 H         1 UNK         0.3038 
    121 H121       35.3516   34.1211    3.5234 H         1 UNK         0.0769 
    122 H122       37.5093   33.0198    3.0512 H         1 UNK         0.0811 
    123 H123       36.6792   33.3380    1.5382 H         1 UNK         0.0811 
    124 H124       36.7060   31.7060    2.2055 H         1 UNK         0.0811 
    125 H125       33.2158   32.4223    4.5457 H         1 UNK         0.3204 
    126 H126       32.5606   31.2406    6.2743 H         1 UNK         0.0748 
    127 H127       33.7774   31.3554    8.4113 H         1 UNK         0.0771 
    128 H128       35.2524   31.8592    7.6003 H         1 UNK         0.0771 
    129 H129       33.8453   32.9217    7.6232 H         1 UNK         0.0771 
    130 H130       33.9694   29.9084    4.0557 H         1 UNK         0.2980 
    131 H131       34.5792   27.9482    3.3524 H         1 UNK         0.0545 
    132 H132       37.9865   28.8370    4.9641 H         1 UNK         0.3459 
    133 H133       36.5743   29.8636    4.9352 H         1 UNK         0.3459 
    134 H134       34.3740   25.8230    4.6547 H         1 UNK         0.0616 
    135 H135       34.0216   26.7285    6.1000 H         1 UNK         0.0616 
    136 H136       31.2647   26.4862    6.7509 H         1 UNK         0.0634 
    137 H137       32.2011   25.0750    6.3093 H         1 UNK         0.0634 
@<TRIPOS>BOND
     1    1    2 1    
     2    1   72 1    
     3    1   73 1    
     4    1   74 1    
     5    2    3 2    
     6    2    4 am   BACKBONE|DICT|INTERRES
     7    4    5 1    
     8    4   75 1    
     9    5    6 1    
    10    5   35 1    
    11    5   76 1    
    12    6    7 1    
    13    6   77 1    
    14    6   78 1    
    15    7    8 1    
    16    8    9 1    
    17    8   79 1    
    18    8   80 1    
    19    9   10 ar   
    20    9   14 ar   
    21   10   11 ar   
    22   10   81 1    
    23   11   12 ar   
    24   11   71 1    
    25   12   13 ar   
    26   12   82 1    
    27   13   14 ar   
    28   13   15 1    
    29   14   83 1    
    30   15   16 1    
    31   15   84 1    
    32   15   85 1    
    33   16   17 1    
    34   17   18 1    
    35   17   86 1    
    36   17   87 1    
    37   18   19 1    
    38   18   37 1    
    39   18   88 1    
    40   19   20 am   BACKBONE|DICT|INTERRES
    41   19   89 1    
    42   20   21 2    
    43   20   22 1    
    44   22   23 1    
    45   22   24 1    
    46   22   90 1    
    47   23   91 1    
    48   23   92 1    
    49   23   93 1    
    50   24   25 am   BACKBONE|DICT|INTERRES
    51   24   94 1    
    52   25   26 2    
    53   25   27 1    
    54   27   28 1    
    55   27   29 1    
    56   27   95 1    
    57   28   96 1    
    58   28   97 1    
    59   28   98 1    
    60   29   30 am   BACKBONE|DICT|INTERRES
    61   29   99 1    
    62   30   31 2    
    63   30   32 1    
    64   32   33 1    
    65   32   34 1    
    66   32  100 1    
    67   33  101 1    
    68   33  102 1    
    69   33  103 1    
    70   34   35 am   BACKBONE|DICT|INTERRES
    71   34  104 1    
    72   35   36 2    
    73   37   38 2    
    74   37   39 am   BACKBONE|DICT|INTERRES
    75   39   40 1    
    76   39  105 1    
    77   40   41 1    
    78   40   42 1    
    79   40  106 1    
    80   41  107 1    
    81   41  108 1    
    82   41  109 1    
    83   42   43 2    
    84   42   44 am   BACKBONE|DICT|INTERRES
    85   44   45 1    
    86   44  110 1    
    87   45   46 1    
    88   45   47 1    
    89   45  111 1    
    90   46  112 1    
    91   46  113 1    
    92   46  114 1    
    93   47   48 2    
    94   47   49 am   BACKBONE|DICT|INTERRES
    95   49   50 1    
    96   49  115 1    
    97   50   51 1    
    98   50   52 1    
    99   50  116 1    
   100   51  117 1    
   101   51  118 1    
   102   51  119 1    
   103   52   53 2    
   104   52   54 am   BACKBONE|DICT|INTERRES
   105   54   55 1    
   106   54  120 1    
   107   55   56 1    
   108   55   57 1    
   109   55  121 1    
   110   56  122 1    
   111   56  123 1    
   112   56  124 1    
   113   57   58 2    
   114   57   59 am   BACKBONE|DICT|INTERRES
   115   59   60 1    
   116   59  125 1    
   117   60   61 1    
   118   60   62 1    
   119   60  126 1    
   120   61  127 1    
   121   61  128 1    
   122   61  129 1    
   123   62   63 2    
   124   62   64 am   BACKBONE|DICT|INTERRES
   125   64   65 1    
   126   64  130 1    
   127   65   66 1    
   128   65   69 1    
   129   65  131 1    
   130   66   67 am   BACKBONE|DICT|INTERRES
   131   66   68 2    
   132   67  132 1    
   133   67  133 1    
   134   69   70 1    
   135   69  134 1    
   136   69  135 1    
   137   70   71 1    
   138   71  136 1    
   139   71  137 1    
@<TRIPOS>SUBSTRUCTURE
     1 UNK         1 GROUP             0       ****    0 ROOT    
