@<TRIPOS>MOLECULE
3R136
137   139    1
SMALL
USER_CHARGES


@<TRIPOS>ATOM
      1 CA         27.1418   21.8586    4.6859 C.3       0 UNK        -0.1979 
      2 C          27.3156   21.1983    3.3262 C.2       0 UNK         0.4864 
      3 O          27.0968   19.9920    3.2015 O.2       0 UNK        -0.5359 
      4 N          27.7103   21.9768    2.3112 N.am      1 UNK        -0.4318 
      5 CA         27.8562   21.5232    0.9239 C.3       1 UNK         0.0824 
      6 C6         28.9059   22.3623    0.1521 C.3       12 UNK        -0.0944 
      7 S7         30.5969   21.9562    0.7026 S.3       12 UNK        -0.2672 
      8 C8         31.4924   23.5081    0.3469 C.3       12 UNK         0.0333 
      9 C9         31.3455   24.6299    1.3787 C.ar      12 UNK        -0.0807 
     10 C10        32.0796   25.8037    1.1787 C.ar      12 UNK        -0.0894 
     11 C11        31.9963   26.8657    2.0827 C.ar      12 UNK        -0.0804 
     12 C12        31.1617   26.7568    3.1973 C.ar      12 UNK        -0.0824 
     13 C13        30.4117   25.5978    3.4079 C.ar      12 UNK        -0.0762 
     14 C14        30.5173   24.5355    2.5062 C.ar      12 UNK        -0.0782 
     15 C15        29.4700   25.4982    4.5980 C.3       12 UNK         0.0230 
     16 S16        27.7511   25.8594    4.1137 S.3       12 UNK        -0.2608 
     17 C17        27.8345   27.6443    3.7355 C.3       12 UNK        -0.0989 
     18 CA         27.9286   27.9260    2.2127 C.3       5 UNK         0.0716 
     19 N          26.7639   27.4082    1.4871 N.am      5 UNK        -0.4135 
     20 C          26.7620   27.0470    0.1995 C.2       4 UNK         0.5031 
     21 O          27.7622   27.0766   -0.5244 O.2       4 UNK        -0.5229 
     22 CA         25.4108   26.6481   -0.3978 C.3       4 UNK         0.0329 
     23 CB         24.6291   27.8995   -0.8440 C.3       4 UNK        -0.2001 
     24 N          25.6627   25.7699   -1.5348 N.am      4 UNK        -0.4303 
     25 C          24.7708   24.9607   -2.1150 C.2       3 UNK         0.5044 
     26 O          23.5836   24.9116   -1.7900 O.2       3 UNK        -0.5152 
     27 CA         25.2893   24.0388   -3.2356 C.3       3 UNK         0.0319 
     28 CB         26.5446   24.5776   -3.9527 C.3       3 UNK        -0.2001 
     29 N          25.5823   22.7165   -2.6848 N.am      3 UNK        -0.4354 
     30 C          24.6684   21.7756   -2.4078 C.2       2 UNK         0.4964 
     31 O          23.4830   21.8500   -2.7338 O.2       2 UNK        -0.5047 
     32 CA         25.1510   20.5290   -1.6414 C.3       2 UNK         0.0288 
     33 CB         25.3649   19.3536   -2.6100 C.3       2 UNK        -0.2113 
     34 N          26.3729   20.7250   -0.8502 N.am      2 UNK        -0.4145 
     35 C          26.4891   21.5370    0.2116 C.2       1 UNK         0.5006 
     36 O          25.5864   22.2764    0.6131 O.2       1 UNK        -0.5103 
     37 C          28.1122   29.4272    1.8976 C.2       5 UNK         0.5055 
     38 O          27.9745   30.2710    2.7844 O.2       5 UNK        -0.5220 
     39 N          28.3751   29.7353    0.6203 N.am      6 UNK        -0.4450 
     40 CA         28.4014   31.0893    0.0558 C.3       6 UNK         0.0367 
     41 CB         28.5068   30.9878   -1.4745 C.3       6 UNK        -0.1929 
     42 C          29.5085   32.0051    0.6090 C.2       6 UNK         0.5070 
     43 O          29.3487   33.2254    0.5707 O.2       6 UNK        -0.5237 
     44 N          30.5996   31.4124    1.1072 N.am      7 UNK        -0.4739 
     45 CA         31.7508   32.1118    1.6809 C.3       7 UNK         0.0276 
     46 CB         32.9627   31.9503    0.7430 C.3       7 UNK        -0.1927 
     47 C          32.0329   31.6052    3.1030 C.2       7 UNK         0.5013 
     48 O          33.1940   31.3925    3.4558 O.2       7 UNK        -0.5193 
     49 N          30.9724   31.3983    3.8998 N.am      8 UNK        -0.4253 
     50 CA         31.0219   30.8551    5.2665 C.3       8 UNK         0.0242 
     51 CB         29.6082   30.8461    5.8692 C.3       8 UNK        -0.2000 
     52 C          31.9941   31.5763    6.2188 C.2       8 UNK         0.4948 
     53 O          32.6058   30.9210    7.0615 O.2       8 UNK        -0.5275 
     54 N          32.1560   32.8949    6.0405 N.am      9 UNK        -0.4246 
     55 CA         33.1172   33.7248    6.7720 C.3       9 UNK         0.0261 
     56 CB         32.8366   35.2059    6.4698 C.3       9 UNK        -0.1959 
     57 C          34.5920   33.3861    6.4751 C.2       9 UNK         0.5033 
     58 O          35.4412   33.6383    7.3313 O.2       9 UNK        -0.5390 
     59 N          34.8744   32.8334    5.2868 N.am      10 UNK        -0.4215 
     60 CA         36.2009   32.3692    4.8814 C.3       10 UNK         0.0240 
     61 CB         36.4139   32.6508    3.3841 C.3       10 UNK        -0.1982 
     62 C          36.3728   30.8737    5.1826 C.2       10 UNK         0.4970 
     63 O          37.4222   30.4837    5.6961 O.2       10 UNK        -0.4916 
     64 N          35.3524   30.0679    4.8568 N.am      11 UNK        -0.4279 
     65 CA         35.3416   28.6136    5.0792 C.3       11 UNK         0.1003 
     66 C          35.2851   28.1908    6.5743 C.2       11 UNK         0.5709 
     67 N          34.6683   28.9602    7.4622 N.am      11 UNK        -0.7358 
     68 O          35.8216   27.1460    6.9356 O.2       11 UNK        -0.4999 
     69 C69        34.2231   27.9134    4.2681 C.3       12 UNK        -0.0954 
     70 S70        34.4907   28.0307    2.4674 S.3       12 UNK        -0.2268 
     71 C71        32.7868   28.1413    1.8404 C.3       12 UNK         0.0203 
     72 H72        27.8214   21.4107    5.4105 H         1 UNK         0.0888 
     73 H73        27.3433   22.9282    4.6489 H         1 UNK         0.0888 
     74 H74        26.1217   21.7196    5.0428 H         1 UNK         0.0888 
     75 H75        27.8019   22.9710    2.4579 H         1 UNK         0.3017 
     76 H76        28.1949   20.4842    0.9342 H         1 UNK         0.0873 
     77 H77        28.7161   23.4311    0.2720 H         1 UNK         0.0745 
     78 H78        28.8652   22.1624   -0.9204 H         1 UNK         0.0745 
     79 H79        32.5517   23.2621    0.2603 H         1 UNK         0.0705 
     80 H80        31.1832   23.8778   -0.6320 H         1 UNK         0.0705 
     81 H81        32.7240   25.8920    0.3142 H         1 UNK         0.1334 
     82 H82        31.0831   27.5801    3.8930 H         1 UNK         0.1417 
     83 H83        29.9410   23.6427    2.6923 H         1 UNK         0.1562 
     84 H84        29.7780   26.1740    5.3975 H         1 UNK         0.0748 
     85 H85        29.5158   24.4921    5.0176 H         1 UNK         0.0748 
     86 H86        28.6863   28.0777    4.2609 H         1 UNK         0.0940 
     87 H87        26.9498   28.1232    4.1597 H         1 UNK         0.0940 
     88 H88        28.8191   27.4187    1.8372 H         1 UNK         0.0703 
     89 H89        25.8982   27.3790    2.0059 H         1 UNK         0.3081 
     90 H90        24.8406   26.0997    0.3554 H         1 UNK         0.0719 
     91 H91        23.6504   27.6387   -1.2468 H         1 UNK         0.0809 
     92 H92        25.1682   28.4566   -1.6116 H         1 UNK         0.0809 
     93 H93        24.4597   28.5779   -0.0069 H         1 UNK         0.0809 
     94 H94        26.6289   25.7616   -1.8387 H         1 UNK         0.2990 
     95 H95        24.4938   23.9514   -3.9788 H         1 UNK         0.0690 
     96 H96        26.7951   23.9575   -4.8138 H         1 UNK         0.0788 
     97 H97        27.4200   24.6017   -3.3025 H         1 UNK         0.0788 
     98 H98        26.3791   25.5891   -4.3268 H         1 UNK         0.0788 
     99 H99        26.5296   22.5547   -2.3788 H         1 UNK         0.2993 
    100 H100       24.3527   20.2576   -0.9469 H         1 UNK         0.0949 
    101 H101       25.6052   18.4349   -2.0741 H         1 UNK         0.0767 
    102 H102       24.4636   19.1582   -3.1931 H         1 UNK         0.0767 
    103 H103       26.1721   19.5537   -3.3159 H         1 UNK         0.0767 
    104 H104       27.1665   20.1573   -1.1128 H         1 UNK         0.3013 
    105 H105       28.4381   28.9637   -0.0369 H         1 UNK         0.3121 
    106 H106       27.4472   31.5614    0.2995 H         1 UNK         0.0774 
    107 H107       28.4942   31.9772   -1.9342 H         1 UNK         0.0815 
    108 H108       29.4307   30.4969   -1.7830 H         1 UNK         0.0815 
    109 H109       27.6713   30.4272   -1.8945 H         1 UNK         0.0815 
    110 H110       30.6317   30.4031    1.1108 H         1 UNK         0.2987 
    111 H111       31.5422   33.1794    1.7778 H         1 UNK         0.0949 
    112 H112       33.2755   30.9092    0.6595 H         1 UNK         0.0806 
    113 H113       32.7387   32.3148   -0.2595 H         1 UNK         0.0806 
    114 H114       33.8186   32.5196    1.1075 H         1 UNK         0.0806 
    115 H115       30.0512   31.5695    3.5177 H         1 UNK         0.3010 
    116 H116       31.3634   29.8217    5.1864 H         1 UNK         0.0829 
    117 H117       28.9242   30.2377    5.2798 H         1 UNK         0.0813 
    118 H118       29.6156   30.4318    6.8785 H         1 UNK         0.0813 
    119 H119       29.1900   31.8514    5.9323 H         1 UNK         0.0813 
    120 H120       31.6060   33.3518    5.3277 H         1 UNK         0.3038 
    121 H121       32.9552   33.5574    7.8390 H         1 UNK         0.0769 
    122 H122       33.5180   35.8528    7.0245 H         1 UNK         0.0811 
    123 H123       31.8229   35.4857    6.7572 H         1 UNK         0.0811 
    124 H124       32.9623   35.4335    5.4105 H         1 UNK         0.0811 
    125 H125       34.1108   32.5955    4.6611 H         1 UNK         0.3204 
    126 H126       36.9686   32.9149    5.4344 H         1 UNK         0.0748 
    127 H127       37.4140   32.3483    3.0710 H         1 UNK         0.0771 
    128 H128       35.7017   32.1098    2.7604 H         1 UNK         0.0771 
    129 H129       36.3126   33.7134    3.1630 H         1 UNK         0.0771 
    130 H130       34.5380   30.4613    4.3943 H         1 UNK         0.2980 
    131 H131       36.2939   28.2331    4.7038 H         1 UNK         0.0545 
    132 H132       34.1375   29.7782    7.1783 H         1 UNK         0.3459 
    133 H133       34.6511   28.6718    8.4267 H         1 UNK         0.3459 
    134 H134       33.2564   28.3467    4.5265 H         1 UNK         0.0616 
    135 H135       34.1636   26.8517    4.5154 H         1 UNK         0.0616 
    136 H136       32.2828   28.9834    2.3081 H         1 UNK         0.0634 
    137 H137       32.8184   28.3583    0.7718 H         1 UNK         0.0634 
@<TRIPOS>BOND
     1    1    2 1    
     2    1   72 1    
     3    1   73 1    
     4    1   74 1    
     5    2    3 2    
     6    2    4 am   BACKBONE|DICT|INTERRES
     7    4    5 1    
     8    4   75 1    
     9    5    6 1    
    10    5   35 1    
    11    5   76 1    
    12    6    7 1    
    13    6   77 1    
    14    6   78 1    
    15    7    8 1    
    16    8    9 1    
    17    8   79 1    
    18    8   80 1    
    19    9   10 ar   
    20    9   14 ar   
    21   10   11 ar   
    22   10   81 1    
    23   11   12 ar   
    24   11   71 1    
    25   12   13 ar   
    26   12   82 1    
    27   13   14 ar   
    28   13   15 1    
    29   14   83 1    
    30   15   16 1    
    31   15   84 1    
    32   15   85 1    
    33   16   17 1    
    34   17   18 1    
    35   17   86 1    
    36   17   87 1    
    37   18   19 1    
    38   18   37 1    
    39   18   88 1    
    40   19   20 am   BACKBONE|DICT|INTERRES
    41   19   89 1    
    42   20   21 2    
    43   20   22 1    
    44   22   23 1    
    45   22   24 1    
    46   22   90 1    
    47   23   91 1    
    48   23   92 1    
    49   23   93 1    
    50   24   25 am   BACKBONE|DICT|INTERRES
    51   24   94 1    
    52   25   26 2    
    53   25   27 1    
    54   27   28 1    
    55   27   29 1    
    56   27   95 1    
    57   28   96 1    
    58   28   97 1    
    59   28   98 1    
    60   29   30 am   BACKBONE|DICT|INTERRES
    61   29   99 1    
    62   30   31 2    
    63   30   32 1    
    64   32   33 1    
    65   32   34 1    
    66   32  100 1    
    67   33  101 1    
    68   33  102 1    
    69   33  103 1    
    70   34   35 am   BACKBONE|DICT|INTERRES
    71   34  104 1    
    72   35   36 2    
    73   37   38 2    
    74   37   39 am   BACKBONE|DICT|INTERRES
    75   39   40 1    
    76   39  105 1    
    77   40   41 1    
    78   40   42 1    
    79   40  106 1    
    80   41  107 1    
    81   41  108 1    
    82   41  109 1    
    83   42   43 2    
    84   42   44 am   BACKBONE|DICT|INTERRES
    85   44   45 1    
    86   44  110 1    
    87   45   46 1    
    88   45   47 1    
    89   45  111 1    
    90   46  112 1    
    91   46  113 1    
    92   46  114 1    
    93   47   48 2    
    94   47   49 am   BACKBONE|DICT|INTERRES
    95   49   50 1    
    96   49  115 1    
    97   50   51 1    
    98   50   52 1    
    99   50  116 1    
   100   51  117 1    
   101   51  118 1    
   102   51  119 1    
   103   52   53 2    
   104   52   54 am   BACKBONE|DICT|INTERRES
   105   54   55 1    
   106   54  120 1    
   107   55   56 1    
   108   55   57 1    
   109   55  121 1    
   110   56  122 1    
   111   56  123 1    
   112   56  124 1    
   113   57   58 2    
   114   57   59 am   BACKBONE|DICT|INTERRES
   115   59   60 1    
   116   59  125 1    
   117   60   61 1    
   118   60   62 1    
   119   60  126 1    
   120   61  127 1    
   121   61  128 1    
   122   61  129 1    
   123   62   63 2    
   124   62   64 am   BACKBONE|DICT|INTERRES
   125   64   65 1    
   126   64  130 1    
   127   65   66 1    
   128   65   69 1    
   129   65  131 1    
   130   66   67 am   BACKBONE|DICT|INTERRES
   131   66   68 2    
   132   67  132 1    
   133   67  133 1    
   134   69   70 1    
   135   69  134 1    
   136   69  135 1    
   137   70   71 1    
   138   71  136 1    
   139   71  137 1    
@<TRIPOS>SUBSTRUCTURE
     1 UNK         1 GROUP             0       ****    0 ROOT    
