@<TRIPOS>MOLECULE
3R136
137   139    1
SMALL
USER_CHARGES


@<TRIPOS>ATOM
      1 CA         30.9788   19.5090   -0.0448 C.3       0 UNK        -0.1979 
      2 C          30.3463   20.8610    0.2471 C.2       0 UNK         0.4864 
      3 O          30.4825   21.7879   -0.5529 O.2       0 UNK        -0.5359 
      4 N          29.6345   20.9789    1.3755 N.am      1 UNK        -0.4318 
      5 CA         29.0061   22.2065    1.8885 C.3       1 UNK         0.0824 
      6 C6         28.7680   22.1249    3.4277 C.3       12 UNK        -0.0944 
      7 S7         30.1829   21.4793    4.3977 S.3       12 UNK        -0.2672 
      8 C8         30.9262   22.9819    5.1095 C.3       12 UNK         0.0333 
      9 C9         31.6816   23.7663    4.0508 C.ar      12 UNK        -0.0807 
     10 C10        33.0092   23.4550    3.7479 C.ar      12 UNK        -0.0894 
     11 C11        33.6785   24.1350    2.7263 C.ar      12 UNK        -0.0804 
     12 C12        33.0048   25.1227    2.0006 C.ar      12 UNK        -0.0824 
     13 C13        31.6735   25.4405    2.2903 C.ar      12 UNK        -0.0762 
     14 C14        31.0323   24.7758    3.3415 C.ar      12 UNK        -0.0782 
     15 C15        30.9548   26.4865    1.4406 C.3       12 UNK         0.0230 
     16 S16        29.1650   26.1864    1.2346 S.3       12 UNK        -0.2608 
     17 C17        28.4799   27.1297    2.6410 C.3       12 UNK        -0.0989 
     18 CA         28.1575   28.5865    2.2410 C.3       5 UNK         0.0716 
     19 N          27.1953   28.6602    1.1493 N.am      5 UNK        -0.4135 
     20 C          26.9567   29.7356    0.3942 C.2       4 UNK         0.5031 
     21 O          27.4584   30.8427    0.6087 O.2       4 UNK        -0.5229 
     22 CA         26.0529   29.5035   -0.8373 C.3       4 UNK         0.0329 
     23 CB         25.9027   30.7713   -1.6989 C.3       4 UNK        -0.2001 
     24 N          26.5513   28.4051   -1.6806 N.am      4 UNK        -0.4303 
     25 C          26.4815   27.0990   -1.3806 C.2       3 UNK         0.5044 
     26 O          25.8793   26.6744   -0.3902 O.2       3 UNK        -0.5152 
     27 CA         27.2528   26.1290   -2.2998 C.3       3 UNK         0.0319 
     28 CB         28.6877   26.6164   -2.5840 C.3       3 UNK        -0.2001 
     29 N          27.3252   24.7825   -1.7217 N.am      3 UNK        -0.4354 
     30 C          26.3541   23.8638   -1.8074 C.2       2 UNK         0.4964 
     31 O          25.3098   24.0382   -2.4386 O.2       2 UNK        -0.5047 
     32 CA         26.5726   22.5121   -1.1049 C.3       2 UNK         0.0288 
     33 CB         26.7286   21.3907   -2.1476 C.3       2 UNK        -0.2113 
     34 N          27.7405   22.4745   -0.2180 N.am      2 UNK        -0.4145 
     35 C          27.7050   22.5667    1.1184 C.2       1 UNK         0.5006 
     36 O          26.6839   22.8658    1.7415 O.2       1 UNK        -0.5103 
     37 C          27.7058   29.4211    3.4496 C.2       5 UNK         0.5055 
     38 O          26.5056   29.5816    3.6840 O.2       5 UNK        -0.5220 
     39 N          28.6951   29.9666    4.1656 N.am      6 UNK        -0.4450 
     40 CA         28.6213   30.9241    5.2769 C.3       6 UNK         0.0367 
     41 CB         27.7468   30.4115    6.4376 C.3       6 UNK        -0.1929 
     42 C          28.2118   32.3409    4.8358 C.2       6 UNK         0.5070 
     43 O          28.7412   33.3082    5.3824 O.2       6 UNK        -0.5237 
     44 N          27.3179   32.4500    3.8432 N.am      7 UNK        -0.4739 
     45 CA         26.9600   33.6996    3.1721 C.3       7 UNK         0.0276 
     46 CB         25.6871   33.4983    2.3330 C.3       7 UNK        -0.1927 
     47 C          28.1214   34.2278    2.3143 C.2       7 UNK         0.5013 
     48 O          28.4994   35.3905    2.4641 O.2       7 UNK        -0.5193 
     49 N          28.6799   33.3619    1.4553 N.am      8 UNK        -0.4253 
     50 CA         29.8799   33.6501    0.6683 C.3       8 UNK         0.0242 
     51 CB         29.9167   32.7461   -0.5773 C.3       8 UNK        -0.2000 
     52 C          31.1512   33.4896    1.5180 C.2       8 UNK         0.4948 
     53 O          31.9028   34.4515    1.6804 O.2       8 UNK        -0.5275 
     54 N          31.3560   32.2770    2.0439 N.am      9 UNK        -0.4246 
     55 CA         32.4877   31.8270    2.8546 C.3       9 UNK         0.0261 
     56 CB         33.7923   31.8447    2.0288 C.3       9 UNK        -0.1959 
     57 C          32.1696   30.4024    3.3309 C.2       9 UNK         0.5033 
     58 O          31.1566   29.8391    2.9105 O.2       9 UNK        -0.5390 
     59 N          33.0225   29.8266    4.1806 N.am      10 UNK        -0.4215 
     60 CA         32.9594   28.4283    4.6034 C.3       10 UNK         0.0240 
     61 CB         31.8834   28.2299    5.6888 C.3       10 UNK        -0.1982 
     62 C          34.3431   28.0122    5.1095 C.2       10 UNK         0.4970 
     63 O          35.1078   28.8730    5.5538 O.2       10 UNK        -0.4916 
     64 N          34.6334   26.7083    5.0434 N.am      11 UNK        -0.4279 
     65 CA         35.9037   26.1203    5.5037 C.3       11 UNK         0.1003 
     66 C          36.0089   25.9385    7.0467 C.2       11 UNK         0.5709 
     67 N          34.9467   26.1388    7.8184 N.am      11 UNK        -0.7358 
     68 O          37.0810   25.6191    7.5552 O.2       11 UNK        -0.4999 
     69 C69        36.2364   24.7990    4.7617 C.3       12 UNK        -0.0954 
     70 S70        36.3105   25.0109    2.9500 S.3       12 UNK        -0.2268 
     71 C71        35.1125   23.7690    2.3708 C.3       12 UNK         0.0203 
     72 H72        32.0593   19.6143   -0.1382 H         1 UNK         0.0888 
     73 H73        30.7758   18.7852    0.7443 H         1 UNK         0.0888 
     74 H74        30.5923   19.1083   -0.9815 H         1 UNK         0.0888 
     75 H75        29.5483   20.1775    1.9844 H         1 UNK         0.3017 
     76 H76        29.7018   23.0263    1.7038 H         1 UNK         0.0873 
     77 H77        28.4777   23.1013    3.8188 H         1 UNK         0.0745 
     78 H78        27.9266   21.4620    3.6392 H         1 UNK         0.0745 
     79 H79        31.6092   22.6926    5.9096 H         1 UNK         0.0705 
     80 H80        30.1536   23.5958    5.5752 H         1 UNK         0.0705 
     81 H81        33.5109   22.6661    4.2917 H         1 UNK         0.1334 
     82 H82        33.5178   25.6322    1.1959 H         1 UNK         0.1417 
     83 H83        30.0048   24.9976    3.5844 H         1 UNK         0.1562 
     84 H84        31.3944   26.5069    0.4423 H         1 UNK         0.0748 
     85 H85        31.1212   27.4755    1.8645 H         1 UNK         0.0748 
     86 H86        29.1912   27.1137    3.4687 H         1 UNK         0.0940 
     87 H87        27.5824   26.6194    2.9963 H         1 UNK         0.0940 
     88 H88        29.0718   29.0341    1.8514 H         1 UNK         0.0703 
     89 H89        26.7388   27.7916    0.8865 H         1 UNK         0.3081 
     90 H90        25.0629   29.2348   -0.4630 H         1 UNK         0.0719 
     91 H91        26.8615   31.1031   -2.0996 H         1 UNK         0.0809 
     92 H92        25.2258   30.6051   -2.5370 H         1 UNK         0.0809 
     93 H93        25.4933   31.5952   -1.1125 H         1 UNK         0.0809 
     94 H94        27.0823   28.6791   -2.4946 H         1 UNK         0.2990 
     95 H95        26.7161   26.0799   -3.2496 H         1 UNK         0.0690 
     96 H96        29.2450   25.8831   -3.1675 H         1 UNK         0.0788 
     97 H97        29.2446   26.8011   -1.6651 H         1 UNK         0.0788 
     98 H98        28.6911   27.5421   -3.1600 H         1 UNK         0.0788 
     99 H99        28.1217   24.5836   -1.1341 H         1 UNK         0.2993 
    100 H100       25.6679   22.3091   -0.5274 H         1 UNK         0.0949 
    101 H101       27.6140   21.5372   -2.7677 H         1 UNK         0.0767 
    102 H102       26.8122   20.4145   -1.6693 H         1 UNK         0.0767 
    103 H103       25.8657   21.3492   -2.8140 H         1 UNK         0.0767 
    104 H104       28.6384   22.2458   -0.6386 H         1 UNK         0.3013 
    105 H105       29.6398   29.8133    3.8081 H         1 UNK         0.3121 
    106 H106       29.6429   31.0026    5.6528 H         1 UNK         0.0774 
    107 H107       27.8264   31.0736    7.3006 H         1 UNK         0.0815 
    108 H108       26.6917   30.3633    6.1678 H         1 UNK         0.0815 
    109 H109       28.0585   29.4183    6.7604 H         1 UNK         0.0815 
    110 H110       26.9069   31.5944    3.4858 H         1 UNK         0.2987 
    111 H111       26.7452   34.4477    3.9387 H         1 UNK         0.0949 
    112 H112       25.4022   34.4239    1.8310 H         1 UNK         0.0806 
    113 H113       25.8190   32.7381    1.5629 H         1 UNK         0.0806 
    114 H114       24.8460   33.1973    2.9576 H         1 UNK         0.0806 
    115 H115       28.2674   32.4385    1.3442 H         1 UNK         0.3010 
    116 H116       29.8357   34.6858    0.3239 H         1 UNK         0.0829 
    117 H117       29.0456   32.9147   -1.2108 H         1 UNK         0.0813 
    118 H118       30.8018   32.9502   -1.1810 H         1 UNK         0.0813 
    119 H119       29.9346   31.6869   -0.3182 H         1 UNK         0.0813 
    120 H120       30.6780   31.5417    1.8814 H         1 UNK         0.3038 
    121 H121       32.5816   32.4769    3.7265 H         1 UNK         0.0769 
    122 H122       33.7150   31.2097    1.1452 H         1 UNK         0.0811 
    123 H123       34.6405   31.4880    2.6140 H         1 UNK         0.0811 
    124 H124       34.0454   32.8503    1.6939 H         1 UNK         0.0811 
    125 H125       33.8524   30.3171    4.4935 H         1 UNK         0.3204 
    126 H126       32.7181   27.8099    3.7367 H         1 UNK         0.0748 
    127 H127       31.8514   27.1930    6.0255 H         1 UNK         0.0771 
    128 H128       32.0742   28.8546    6.5623 H         1 UNK         0.0771 
    129 H129       30.8889   28.4716    5.3162 H         1 UNK         0.0771 
    130 H130       33.9608   26.0620    4.6566 H         1 UNK         0.2980 
    131 H131       36.6965   26.8263    5.2484 H         1 UNK         0.0545 
    132 H132       34.0636   26.4052    7.4159 H         1 UNK         0.3459 
    133 H133       35.0337   26.0222    8.8156 H         1 UNK         0.3459 
    134 H134       35.5132   24.0249    5.0207 H         1 UNK         0.0616 
    135 H135       37.2090   24.4185    5.0788 H         1 UNK         0.0616 
    136 H136       35.3791   22.7932    2.7801 H         1 UNK         0.0634 
    137 H137       35.2010   23.6775    1.2874 H         1 UNK         0.0634 
@<TRIPOS>BOND
     1    1    2 1    
     2    1   72 1    
     3    1   73 1    
     4    1   74 1    
     5    2    3 2    
     6    2    4 am   BACKBONE|DICT|INTERRES
     7    4    5 1    
     8    4   75 1    
     9    5    6 1    
    10    5   35 1    
    11    5   76 1    
    12    6    7 1    
    13    6   77 1    
    14    6   78 1    
    15    7    8 1    
    16    8    9 1    
    17    8   79 1    
    18    8   80 1    
    19    9   10 ar   
    20    9   14 ar   
    21   10   11 ar   
    22   10   81 1    
    23   11   12 ar   
    24   11   71 1    
    25   12   13 ar   
    26   12   82 1    
    27   13   14 ar   
    28   13   15 1    
    29   14   83 1    
    30   15   16 1    
    31   15   84 1    
    32   15   85 1    
    33   16   17 1    
    34   17   18 1    
    35   17   86 1    
    36   17   87 1    
    37   18   19 1    
    38   18   37 1    
    39   18   88 1    
    40   19   20 am   BACKBONE|DICT|INTERRES
    41   19   89 1    
    42   20   21 2    
    43   20   22 1    
    44   22   23 1    
    45   22   24 1    
    46   22   90 1    
    47   23   91 1    
    48   23   92 1    
    49   23   93 1    
    50   24   25 am   BACKBONE|DICT|INTERRES
    51   24   94 1    
    52   25   26 2    
    53   25   27 1    
    54   27   28 1    
    55   27   29 1    
    56   27   95 1    
    57   28   96 1    
    58   28   97 1    
    59   28   98 1    
    60   29   30 am   BACKBONE|DICT|INTERRES
    61   29   99 1    
    62   30   31 2    
    63   30   32 1    
    64   32   33 1    
    65   32   34 1    
    66   32  100 1    
    67   33  101 1    
    68   33  102 1    
    69   33  103 1    
    70   34   35 am   BACKBONE|DICT|INTERRES
    71   34  104 1    
    72   35   36 2    
    73   37   38 2    
    74   37   39 am   BACKBONE|DICT|INTERRES
    75   39   40 1    
    76   39  105 1    
    77   40   41 1    
    78   40   42 1    
    79   40  106 1    
    80   41  107 1    
    81   41  108 1    
    82   41  109 1    
    83   42   43 2    
    84   42   44 am   BACKBONE|DICT|INTERRES
    85   44   45 1    
    86   44  110 1    
    87   45   46 1    
    88   45   47 1    
    89   45  111 1    
    90   46  112 1    
    91   46  113 1    
    92   46  114 1    
    93   47   48 2    
    94   47   49 am   BACKBONE|DICT|INTERRES
    95   49   50 1    
    96   49  115 1    
    97   50   51 1    
    98   50   52 1    
    99   50  116 1    
   100   51  117 1    
   101   51  118 1    
   102   51  119 1    
   103   52   53 2    
   104   52   54 am   BACKBONE|DICT|INTERRES
   105   54   55 1    
   106   54  120 1    
   107   55   56 1    
   108   55   57 1    
   109   55  121 1    
   110   56  122 1    
   111   56  123 1    
   112   56  124 1    
   113   57   58 2    
   114   57   59 am   BACKBONE|DICT|INTERRES
   115   59   60 1    
   116   59  125 1    
   117   60   61 1    
   118   60   62 1    
   119   60  126 1    
   120   61  127 1    
   121   61  128 1    
   122   61  129 1    
   123   62   63 2    
   124   62   64 am   BACKBONE|DICT|INTERRES
   125   64   65 1    
   126   64  130 1    
   127   65   66 1    
   128   65   69 1    
   129   65  131 1    
   130   66   67 am   BACKBONE|DICT|INTERRES
   131   66   68 2    
   132   67  132 1    
   133   67  133 1    
   134   69   70 1    
   135   69  134 1    
   136   69  135 1    
   137   70   71 1    
   138   71  136 1    
   139   71  137 1    
@<TRIPOS>SUBSTRUCTURE
     1 UNK         1 GROUP             0       ****    0 ROOT    
