@<TRIPOS>MOLECULE
3R136
137   139    1
SMALL
USER_CHARGES


@<TRIPOS>ATOM
      1 CA         26.6964   18.2954    0.8804 C.3       0 UNK        -0.1979 
      2 C          27.5981   19.0986   -0.0457 C.2       0 UNK         0.4864 
      3 O          27.6446   18.8220   -1.2457 O.2       0 UNK        -0.5359 
      4 N          28.3189   20.0843    0.5033 N.am      1 UNK        -0.4318 
      5 CA         29.1951   20.9934   -0.2426 C.3       1 UNK         0.0824 
      6 C6         30.2073   21.7106    0.6845 C.3       12 UNK        -0.0944 
      7 S7         31.3759   20.5485    1.4706 S.3       12 UNK        -0.2672 
      8 C8         30.8120   20.5224    3.2033 C.3       12 UNK         0.0333 
      9 C9         31.0641   21.8485    3.9069 C.ar      12 UNK        -0.0807 
     10 C10        32.3546   22.1896    4.3266 C.ar      12 UNK        -0.0894 
     11 C11        32.5917   23.4125    4.9622 C.ar      12 UNK        -0.0804 
     12 C12        31.5310   24.2970    5.1730 C.ar      12 UNK        -0.0824 
     13 C13        30.2368   23.9611    4.7691 C.ar      12 UNK        -0.0762 
     14 C14        30.0066   22.7326    4.1445 C.ar      12 UNK        -0.0782 
     15 C15        29.0889   24.9246    5.0151 C.3       12 UNK         0.0230 
     16 S16        28.5710   25.7390    3.4741 S.3       12 UNK        -0.2608 
     17 C17        27.5297   27.0791    4.1382 C.3       12 UNK        -0.0989 
     18 CA         28.0078   28.4644    3.6390 C.3       5 UNK         0.0716 
     19 N          27.7419   28.6225    2.2043 N.am      5 UNK        -0.4135 
     20 C          27.8485   29.7198    1.4431 C.2       4 UNK         0.5031 
     21 O          28.1374   30.8424    1.8676 O.2       4 UNK        -0.5229 
     22 CA         27.6332   29.5114   -0.0701 C.3       4 UNK         0.0329 
     23 CB         27.7427   30.8261   -0.8647 C.3       4 UNK        -0.2001 
     24 N          28.5954   28.5546   -0.6250 N.am      4 UNK        -0.4303 
     25 C          28.5313   27.2231   -0.5046 C.2       3 UNK         0.5044 
     26 O          27.6171   26.6328    0.0757 O.2       3 UNK        -0.5152 
     27 CA         29.7283   26.4364   -1.0665 C.3       3 UNK         0.0319 
     28 CB         30.7893   26.2370    0.0301 C.3       3 UNK        -0.2001 
     29 N          29.3521   25.1267   -1.6021 N.am      3 UNK        -0.4354 
     30 C          28.5372   24.9143   -2.6459 C.2       2 UNK         0.4964 
     31 O          28.0198   25.8218   -3.2995 O.2       2 UNK        -0.5047 
     32 CA         28.2781   23.4529   -3.0678 C.3       2 UNK         0.0288 
     33 CB         28.7785   23.2058   -4.5024 C.3       2 UNK        -0.2113 
     34 N          28.8954   22.4589   -2.1816 N.am      2 UNK        -0.4145 
     35 C          28.3629   22.0255   -1.0311 C.2       1 UNK         0.5006 
     36 O          27.2904   22.4323   -0.5766 O.2       1 UNK        -0.5103 
     37 C          27.4019   29.5892    4.4990 C.2       5 UNK         0.5055 
     38 O          26.1914   29.5948    4.7301 O.2       5 UNK        -0.5220 
     39 N          28.2649   30.5201    4.9301 N.am      6 UNK        -0.4450 
     40 CA         27.9998   31.7083    5.7530 C.3       6 UNK         0.0367 
     41 CB         27.3936   31.3222    7.1181 C.3       6 UNK        -0.1929 
     42 C          27.1800   32.8119    5.0543 C.2       6 UNK         0.5070 
     43 O          26.9927   33.8768    5.6444 O.2       6 UNK        -0.5237 
     44 N          26.7324   32.5721    3.8162 N.am      7 UNK        -0.4739 
     45 CA         26.0716   33.5546    2.9605 C.3       7 UNK         0.0276 
     46 CB         25.1066   32.8364    2.0033 C.3       7 UNK        -0.1927 
     47 C          27.1079   34.3772    2.1833 C.2       7 UNK         0.5013 
     48 O          26.9480   35.5932    2.0687 O.2       7 UNK        -0.5193 
     49 N          28.1558   33.7061    1.6853 N.am      8 UNK        -0.4253 
     50 CA         29.2670   34.3260    0.9609 C.3       8 UNK         0.0242 
     51 CB         28.8705   34.5683   -0.5094 C.3       8 UNK        -0.2000 
     52 C          30.5885   33.5433    1.0568 C.2       8 UNK         0.4948 
     53 O          31.6151   34.0966    0.6582 O.2       8 UNK        -0.5275 
     54 N          30.5753   32.2981    1.5549 N.am      9 UNK        -0.4246 
     55 CA         31.7504   31.4314    1.6408 C.3       9 UNK         0.0261 
     56 CB         31.7092   30.4223    0.4796 C.3       9 UNK        -0.1959 
     57 C          31.7912   30.6954    2.9852 C.2       9 UNK         0.5033 
     58 O          30.7648   30.5566    3.6551 O.2       9 UNK        -0.5390 
     59 N          32.9847   30.2037    3.3239 N.am      10 UNK        -0.4215 
     60 CA         33.3059   29.3503    4.4625 C.3       10 UNK         0.0240 
     61 CB         33.2719   30.1563    5.7755 C.3       10 UNK        -0.1982 
     62 C          34.7017   28.7660    4.2019 C.2       10 UNK         0.4970 
     63 O          35.4527   29.3322    3.4010 O.2       10 UNK        -0.4916 
     64 N          35.0298   27.6564    4.8728 N.am      11 UNK        -0.4279 
     65 CA         36.3233   26.9610    4.7247 C.3       11 UNK         0.1003 
     66 C          37.5102   27.6310    5.4786 C.2       11 UNK         0.5709 
     67 N          37.2865   28.6317    6.3226 N.am      11 UNK        -0.7358 
     68 O          38.6592   27.2402    5.2859 O.2       11 UNK        -0.4999 
     69 C69        36.2252   25.4501    5.0674 C.3       12 UNK        -0.0954 
     70 S70        34.9290   24.5965    4.1064 S.3       12 UNK        -0.2268 
     71 C71        33.9873   23.7852    5.4322 C.3       12 UNK         0.0203 
     72 H72        26.9719   17.2415    0.8511 H         1 UNK         0.0888 
     73 H73        26.7664   18.6350    1.9136 H         1 UNK         0.0888 
     74 H74        25.6578   18.3857    0.5634 H         1 UNK         0.0888 
     75 H75        28.2143   20.2863    1.4859 H         1 UNK         0.3017 
     76 H76        29.7581   20.3963   -0.9642 H         1 UNK         0.0873 
     77 H77        30.8098   22.4221    0.1166 H         1 UNK         0.0745 
     78 H78        29.6865   22.3000    1.4395 H         1 UNK         0.0745 
     79 H79        31.3422   19.7289    3.7320 H         1 UNK         0.0705 
     80 H80        29.7549   20.2558    3.2393 H         1 UNK         0.0705 
     81 H81        33.1750   21.5072    4.1499 H         1 UNK         0.1334 
     82 H82        31.7140   25.2470    5.6565 H         1 UNK         0.1417 
     83 H83        29.0038   22.4762    3.8305 H         1 UNK         0.1562 
     84 H84        29.3846   25.6789    5.7462 H         1 UNK         0.0748 
     85 H85        28.2411   24.3899    5.4460 H         1 UNK         0.0748 
     86 H86        27.5412   27.0348    5.2293 H         1 UNK         0.0940 
     87 H87        26.4929   26.8989    3.8469 H         1 UNK         0.0940 
     88 H88        29.0919   28.5050    3.7599 H         1 UNK         0.0703 
     89 H89        27.5319   27.7583    1.7138 H         1 UNK         0.3081 
     90 H90        26.6227   29.1197   -0.2053 H         1 UNK         0.0719 
     91 H91        28.7403   31.2592   -0.7858 H         1 UNK         0.0809 
     92 H92        27.5289   30.6690   -1.9220 H         1 UNK         0.0809 
     93 H93        27.0323   31.5693   -0.5018 H         1 UNK         0.0809 
     94 H94        29.3909   28.9540   -1.1015 H         1 UNK         0.2990 
     95 H95        30.1717   27.0112   -1.8824 H         1 UNK         0.0690 
     96 H96        31.6773   25.7391   -0.3599 H         1 UNK         0.0788 
     97 H97        30.4051   25.6386    0.8579 H         1 UNK         0.0788 
     98 H98        31.1126   27.1923    0.4455 H         1 UNK         0.0788 
     99 H99        29.7095   24.3224   -1.1119 H         1 UNK         0.2993 
    100 H100       27.1952   23.3085   -3.0580 H         1 UNK         0.0949 
    101 H101       29.8564   23.3515   -4.5851 H         1 UNK         0.0767 
    102 H102       28.5491   22.1927   -4.8337 H         1 UNK         0.0767 
    103 H103       28.3026   23.8884   -5.2080 H         1 UNK         0.0767 
    104 H104       29.7837   22.0824   -2.4826 H         1 UNK         0.3013 
    105 H105       29.2194   30.4643    4.5671 H         1 UNK         0.3121 
    106 H106       28.9799   32.1480    5.9439 H         1 UNK         0.0774 
    107 H107       27.3390   32.1881    7.7790 H         1 UNK         0.0815 
    108 H108       26.3811   30.9304    7.0183 H         1 UNK         0.0815 
    109 H109       27.9985   30.5691    7.6228 H         1 UNK         0.0815 
    110 H110       26.9718   31.6845    3.3904 H         1 UNK         0.2987 
    111 H111       25.4884   34.2423    3.5774 H         1 UNK         0.0949 
    112 H112       24.6092   33.5488    1.3437 H         1 UNK         0.0806 
    113 H113       25.6208   32.1110    1.3734 H         1 UNK         0.0806 
    114 H114       24.3289   32.3064    2.5535 H         1 UNK         0.0806 
    115 H115       28.1780   32.6967    1.8023 H         1 UNK         0.3010 
    116 H116       29.4713   35.2958    1.4201 H         1 UNK         0.0829 
    117 H117       28.0105   35.2337   -0.5861 H         1 UNK         0.0813 
    118 H118       29.6851   35.0350   -1.0648 H         1 UNK         0.0813 
    119 H119       28.6196   33.6391   -1.0193 H         1 UNK         0.0813 
    120 H120       29.7179   31.8742    1.8973 H         1 UNK         0.3038 
    121 H121       32.6640   32.0250    1.5645 H         1 UNK         0.0769 
    122 H122       30.8462   29.7626    0.5604 H         1 UNK         0.0811 
    123 H123       32.6003   29.7934    0.4686 H         1 UNK         0.0811 
    124 H124       31.6587   30.9279   -0.4848 H         1 UNK         0.0811 
    125 H125       33.7802   30.3466    2.7109 H         1 UNK         0.3204 
    126 H126       32.5825   28.5333    4.5062 H         1 UNK         0.0748 
    127 H127       33.5290   29.5291    6.6298 H         1 UNK         0.0771 
    128 H128       33.9771   30.9882    5.7543 H         1 UNK         0.0771 
    129 H129       32.2798   30.5656    5.9674 H         1 UNK         0.0771 
    130 H130       34.3734   27.2479    5.5208 H         1 UNK         0.2980 
    131 H131       36.5961   27.0160    3.6688 H         1 UNK         0.0545 
    132 H132       38.0656   29.0581    6.7989 H         1 UNK         0.3459 
    133 H133       36.3505   28.9643    6.4865 H         1 UNK         0.3459 
    134 H134       36.0503   25.3171    6.1362 H         1 UNK         0.0616 
    135 H135       37.1704   24.9482    4.8526 H         1 UNK         0.0616 
    136 H136       33.9147   24.4475    6.2963 H         1 UNK         0.0634 
    137 H137       34.5264   22.8977    5.7671 H         1 UNK         0.0634 
@<TRIPOS>BOND
     1    1    2 1    
     2    1   72 1    
     3    1   73 1    
     4    1   74 1    
     5    2    3 2    
     6    2    4 am   BACKBONE|DICT|INTERRES
     7    4    5 1    
     8    4   75 1    
     9    5    6 1    
    10    5   35 1    
    11    5   76 1    
    12    6    7 1    
    13    6   77 1    
    14    6   78 1    
    15    7    8 1    
    16    8    9 1    
    17    8   79 1    
    18    8   80 1    
    19    9   10 ar   
    20    9   14 ar   
    21   10   11 ar   
    22   10   81 1    
    23   11   12 ar   
    24   11   71 1    
    25   12   13 ar   
    26   12   82 1    
    27   13   14 ar   
    28   13   15 1    
    29   14   83 1    
    30   15   16 1    
    31   15   84 1    
    32   15   85 1    
    33   16   17 1    
    34   17   18 1    
    35   17   86 1    
    36   17   87 1    
    37   18   19 1    
    38   18   37 1    
    39   18   88 1    
    40   19   20 am   BACKBONE|DICT|INTERRES
    41   19   89 1    
    42   20   21 2    
    43   20   22 1    
    44   22   23 1    
    45   22   24 1    
    46   22   90 1    
    47   23   91 1    
    48   23   92 1    
    49   23   93 1    
    50   24   25 am   BACKBONE|DICT|INTERRES
    51   24   94 1    
    52   25   26 2    
    53   25   27 1    
    54   27   28 1    
    55   27   29 1    
    56   27   95 1    
    57   28   96 1    
    58   28   97 1    
    59   28   98 1    
    60   29   30 am   BACKBONE|DICT|INTERRES
    61   29   99 1    
    62   30   31 2    
    63   30   32 1    
    64   32   33 1    
    65   32   34 1    
    66   32  100 1    
    67   33  101 1    
    68   33  102 1    
    69   33  103 1    
    70   34   35 am   BACKBONE|DICT|INTERRES
    71   34  104 1    
    72   35   36 2    
    73   37   38 2    
    74   37   39 am   BACKBONE|DICT|INTERRES
    75   39   40 1    
    76   39  105 1    
    77   40   41 1    
    78   40   42 1    
    79   40  106 1    
    80   41  107 1    
    81   41  108 1    
    82   41  109 1    
    83   42   43 2    
    84   42   44 am   BACKBONE|DICT|INTERRES
    85   44   45 1    
    86   44  110 1    
    87   45   46 1    
    88   45   47 1    
    89   45  111 1    
    90   46  112 1    
    91   46  113 1    
    92   46  114 1    
    93   47   48 2    
    94   47   49 am   BACKBONE|DICT|INTERRES
    95   49   50 1    
    96   49  115 1    
    97   50   51 1    
    98   50   52 1    
    99   50  116 1    
   100   51  117 1    
   101   51  118 1    
   102   51  119 1    
   103   52   53 2    
   104   52   54 am   BACKBONE|DICT|INTERRES
   105   54   55 1    
   106   54  120 1    
   107   55   56 1    
   108   55   57 1    
   109   55  121 1    
   110   56  122 1    
   111   56  123 1    
   112   56  124 1    
   113   57   58 2    
   114   57   59 am   BACKBONE|DICT|INTERRES
   115   59   60 1    
   116   59  125 1    
   117   60   61 1    
   118   60   62 1    
   119   60  126 1    
   120   61  127 1    
   121   61  128 1    
   122   61  129 1    
   123   62   63 2    
   124   62   64 am   BACKBONE|DICT|INTERRES
   125   64   65 1    
   126   64  130 1    
   127   65   66 1    
   128   65   69 1    
   129   65  131 1    
   130   66   67 am   BACKBONE|DICT|INTERRES
   131   66   68 2    
   132   67  132 1    
   133   67  133 1    
   134   69   70 1    
   135   69  134 1    
   136   69  135 1    
   137   70   71 1    
   138   71  136 1    
   139   71  137 1    
@<TRIPOS>SUBSTRUCTURE
     1 UNK         1 GROUP             0       ****    0 ROOT    
