@<TRIPOS>MOLECULE
3R136
137   139    1
SMALL
USER_CHARGES


@<TRIPOS>ATOM
      1 CA         28.5810   21.5598   -0.6373 C.3       0 UNK        -0.1979 
      2 C          27.7078   21.4387    0.6078 C.2       0 UNK         0.4864 
      3 O          26.7091   20.7215    0.5717 O.2       0 UNK        -0.5359 
      4 N          28.0189   22.1154    1.7203 N.am      1 UNK        -0.4318 
      5 CA         29.1360   23.0400    1.9382 C.3       1 UNK         0.0824 
      6 C6         30.2067   22.4310    2.8857 C.3       12 UNK        -0.0944 
      7 S7         31.1682   21.1137    2.0651 S.3       12 UNK        -0.2672 
      8 C8         32.8466   21.8338    1.9625 C.3       12 UNK         0.0333 
      9 C9         32.8918   23.2226    1.3293 C.ar      12 UNK        -0.0807 
     10 C10        33.6280   24.2415    1.9433 C.ar      12 UNK        -0.0894 
     11 C11        33.6623   25.5267    1.3934 C.ar      12 UNK        -0.0804 
     12 C12        32.9384   25.7961    0.2293 C.ar      12 UNK        -0.0824 
     13 C13        32.1948   24.7893   -0.3912 C.ar      12 UNK        -0.0762 
     14 C14        32.2042   23.4976    0.1426 C.ar      12 UNK        -0.0782 
     15 C15        31.3340   25.1062   -1.6017 C.3       12 UNK         0.0230 
     16 S16        29.6147   25.3365   -1.0643 S.3       12 UNK        -0.2608 
     17 C17        28.7760   25.8493   -2.6040 C.3       12 UNK        -0.0989 
     18 CA         27.7185   26.9745   -2.4015 C.3       5 UNK         0.0716 
     19 N          26.8017   26.6962   -1.2984 N.am      5 UNK        -0.4135 
     20 C          25.6832   25.9672   -1.4058 C.2       4 UNK         0.5031 
     21 O          25.2579   25.5320   -2.4774 O.2       4 UNK        -0.5229 
     22 CA         24.9074   25.6243   -0.1169 C.3       4 UNK         0.0329 
     23 CB         25.0454   24.1279    0.2023 C.3       4 UNK        -0.2001 
     24 N          25.3308   26.3894    1.0561 N.am      4 UNK        -0.4303 
     25 C          25.0612   27.6855    1.2598 C.2       3 UNK         0.5044 
     26 O          24.3536   28.3610    0.5124 O.2       3 UNK        -0.5152 
     27 CA         25.7056   28.3549    2.4882 C.3       3 UNK         0.0319 
     28 CB         24.6802   28.4897    3.6250 C.3       3 UNK        -0.2001 
     29 N          26.9057   27.6833    3.0054 N.am      3 UNK        -0.4354 
     30 C          28.0316   27.4315    2.3222 C.2       2 UNK         0.4964 
     31 O          28.1900   27.7272    1.1372 O.2       2 UNK        -0.5047 
     32 CA         29.1792   26.7332    3.0718 C.3       2 UNK         0.0288 
     33 CB         28.9956   26.6842    4.6081 C.3       2 UNK        -0.2113 
     34 N          29.4374   25.3917    2.5389 N.am      2 UNK        -0.4145 
     35 C          28.5800   24.3597    2.5054 C.2       1 UNK         0.5006 
     36 O          27.4125   24.4195    2.9056 O.2       1 UNK        -0.5103 
     37 C          28.3003   28.3902   -2.2442 C.2       5 UNK         0.5055 
     38 O          27.6971   29.3478   -2.7312 O.2       5 UNK        -0.5220 
     39 N          29.4718   28.4944   -1.6050 N.am      6 UNK        -0.4450 
     40 CA         30.2699   29.7166   -1.4862 C.3       6 UNK         0.0367 
     41 CB         31.6672   29.3542   -0.9559 C.3       6 UNK        -0.1929 
     42 C          29.6388   30.8058   -0.6044 C.2       6 UNK         0.5070 
     43 O          29.8311   31.9879   -0.8894 O.2       6 UNK        -0.5237 
     44 N          28.9354   30.3909    0.4608 N.am      7 UNK        -0.4739 
     45 CA         28.3084   31.2307    1.4939 C.3       7 UNK         0.0276 
     46 CB         27.0914   31.9816    0.9154 C.3       7 UNK        -0.1927 
     47 C          29.2962   32.1604    2.2317 C.2       7 UNK         0.5013 
     48 O          28.9140   33.2464    2.6700 O.2       7 UNK        -0.5193 
     49 N          30.5515   31.7093    2.3642 N.am      8 UNK        -0.4253 
     50 CA         31.6599   32.4646    2.9550 C.3       8 UNK         0.0242 
     51 CB         32.9825   31.9132    2.3951 C.3       8 UNK        -0.2000 
     52 C          31.6831   32.4498    4.4943 C.2       8 UNK         0.4948 
     53 O          32.5021   33.1597    5.0793 O.2       8 UNK        -0.5275 
     54 N          30.8408   31.6167    5.1265 N.am      9 UNK        -0.4246 
     55 CA         30.6921   31.3667    6.5720 C.3       9 UNK         0.0261 
     56 CB         30.3034   32.6470    7.3366 C.3       9 UNK        -0.1959 
     57 C          31.9005   30.6723    7.2289 C.2       9 UNK         0.5033 
     58 O          31.7055   29.7463    8.0178 O.2       9 UNK        -0.5390 
     59 N          33.1210   31.0787    6.8541 N.am      10 UNK        -0.4215 
     60 CA         34.4059   30.4978    7.2651 C.3       10 UNK         0.0240 
     61 CB         35.5454   31.3334    6.6594 C.3       10 UNK        -0.1982 
     62 C          34.5766   29.0101    6.8977 C.2       10 UNK         0.4970 
     63 O          35.3961   28.3280    7.5139 O.2       10 UNK        -0.4916 
     64 N          33.7890   28.5355    5.9247 N.am      11 UNK        -0.4279 
     65 CA         33.6261   27.1220    5.5607 C.3       11 UNK         0.1003 
     66 C          33.0244   26.2315    6.6889 C.2       11 UNK         0.5709 
     67 N          32.3423   26.7854    7.6864 N.am      11 UNK        -0.7358 
     68 O          33.1810   25.0137    6.6536 O.2       11 UNK        -0.4999 
     69 C69        32.7791   26.9732    4.2715 C.3       12 UNK        -0.0954 
     70 S70        33.4441   27.8892    2.8432 S.3       12 UNK        -0.2268 
     71 C71        34.4857   26.6259    2.0497 C.3       12 UNK         0.0203 
     72 H72        28.2472   20.8639   -1.4066 H         1 UNK         0.0888 
     73 H73        28.5202   22.5649   -1.0521 H         1 UNK         0.0888 
     74 H74        29.6209   21.3279   -0.4157 H         1 UNK         0.0888 
     75 H75        27.3717   22.0816    2.4963 H         1 UNK         0.3017 
     76 H76        29.6026   23.2985    0.9905 H         1 UNK         0.0873 
     77 H77        30.9009   23.1896    3.2518 H         1 UNK         0.0745 
     78 H78        29.7358   22.0113    3.7765 H         1 UNK         0.0745 
     79 H79        33.4810   21.1629    1.3821 H         1 UNK         0.0705 
     80 H80        33.2660   21.8589    2.9695 H         1 UNK         0.0705 
     81 H81        34.1755   24.0355    2.8531 H         1 UNK         0.1334 
     82 H82        32.9457   26.7953   -0.1820 H         1 UNK         0.1417 
     83 H83        31.6359   22.7162   -0.3422 H         1 UNK         0.1562 
     84 H84        31.3877   24.2942   -2.3286 H         1 UNK         0.0748 
     85 H85        31.6913   26.0064   -2.1045 H         1 UNK         0.0748 
     86 H86        28.2818   24.9657   -3.0111 H         1 UNK         0.0940 
     87 H87        29.5106   26.1419   -3.3569 H         1 UNK         0.0940 
     88 H88        27.1365   27.0218   -3.3248 H         1 UNK         0.0703 
     89 H89        27.1012   27.0315   -0.3880 H         1 UNK         0.3081 
     90 H90        23.8532   25.8384   -0.3049 H         1 UNK         0.0719 
     91 H91        24.6975   23.5123   -0.6284 H         1 UNK         0.0809 
     92 H92        26.0841   23.8610    0.3930 H         1 UNK         0.0809 
     93 H93        24.4604   23.8494    1.0790 H         1 UNK         0.0809 
     94 H94        25.9191   25.9095    1.7259 H         1 UNK         0.2990 
     95 H95        25.9956   29.3584    2.1771 H         1 UNK         0.0690 
     96 H96        25.0847   29.0624    4.4599 H         1 UNK         0.0788 
     97 H97        24.3680   27.5155    4.0037 H         1 UNK         0.0788 
     98 H98        23.7835   29.0095    3.2841 H         1 UNK         0.0788 
     99 H99        26.8641   27.3726    3.9656 H         1 UNK         0.2993 
    100 H100       30.0703   27.3240    2.8568 H         1 UNK         0.0949 
    101 H101       29.8467   26.2042    5.0909 H         1 UNK         0.0767 
    102 H102       28.9143   27.6876    5.0288 H         1 UNK         0.0767 
    103 H103       28.1081   26.1245    4.9055 H         1 UNK         0.0767 
    104 H104       30.3518   25.2627    2.1269 H         1 UNK         0.3013 
    105 H105       29.8514   27.6503   -1.1954 H         1 UNK         0.3121 
    106 H106       30.3842   30.1360   -2.4881 H         1 UNK         0.0774 
    107 H107       32.2927   30.2432   -0.8615 H         1 UNK         0.0815 
    108 H108       31.6179   28.8854    0.0278 H         1 UNK         0.0815 
    109 H109       32.1818   28.6715   -1.6320 H         1 UNK         0.0815 
    110 H110       28.8067   29.3876    0.5779 H         1 UNK         0.2987 
    111 H111       27.9411   30.5481    2.2593 H         1 UNK         0.0949 
    112 H112       27.3919   32.7328    0.1843 H         1 UNK         0.0806 
    113 H113       26.3994   31.2960    0.4258 H         1 UNK         0.0806 
    114 H114       26.5356   32.4952    1.7009 H         1 UNK         0.0806 
    115 H115       30.7761   30.8105    1.9632 H         1 UNK         0.3010 
    116 H116       31.5707   33.5087    2.6469 H         1 UNK         0.0829 
    117 H117       33.0060   31.9662    1.3064 H         1 UNK         0.0813 
    118 H118       33.8342   32.4877    2.7623 H         1 UNK         0.0813 
    119 H119       33.1432   30.8748    2.6848 H         1 UNK         0.0813 
    120 H120       30.2345   31.0647    4.5374 H         1 UNK         0.3038 
    121 H121       29.8548   30.6723    6.6610 H         1 UNK         0.0769 
    122 H122       30.0890   32.4236    8.3826 H         1 UNK         0.0811 
    123 H123       29.4092   33.1047    6.9134 H         1 UNK         0.0811 
    124 H124       31.0993   33.3921    7.3234 H         1 UNK         0.0811 
    125 H125       33.1538   31.8710    6.2141 H         1 UNK         0.3204 
    126 H126       34.4638   30.5694    8.3530 H         1 UNK         0.0748 
    127 H127       35.4916   32.3727    6.9845 H         1 UNK         0.0771 
    128 H128       36.5195   30.9495    6.9662 H         1 UNK         0.0771 
    129 H129       35.5175   31.3213    5.5688 H         1 UNK         0.0771 
    130 H130       33.1697   29.1798    5.4597 H         1 UNK         0.2980 
    131 H131       34.6230   26.7277    5.3561 H         1 UNK         0.0545 
    132 H132       32.2002   27.7884    7.7345 H         1 UNK         0.3459 
    133 H133       31.9631   26.1932    8.4075 H         1 UNK         0.3459 
    134 H134       32.6526   25.9239    4.0020 H         1 UNK         0.0616 
    135 H135       31.7783   27.3611    4.4557 H         1 UNK         0.0616 
    136 H136       35.1038   27.1092    1.2918 H         1 UNK         0.0634 
    137 H137       35.1749   26.2122    2.7875 H         1 UNK         0.0634 
@<TRIPOS>BOND
     1    1    2 1    
     2    1   72 1    
     3    1   73 1    
     4    1   74 1    
     5    2    3 2    
     6    2    4 am   BACKBONE|DICT|INTERRES
     7    4    5 1    
     8    4   75 1    
     9    5    6 1    
    10    5   35 1    
    11    5   76 1    
    12    6    7 1    
    13    6   77 1    
    14    6   78 1    
    15    7    8 1    
    16    8    9 1    
    17    8   79 1    
    18    8   80 1    
    19    9   10 ar   
    20    9   14 ar   
    21   10   11 ar   
    22   10   81 1    
    23   11   12 ar   
    24   11   71 1    
    25   12   13 ar   
    26   12   82 1    
    27   13   14 ar   
    28   13   15 1    
    29   14   83 1    
    30   15   16 1    
    31   15   84 1    
    32   15   85 1    
    33   16   17 1    
    34   17   18 1    
    35   17   86 1    
    36   17   87 1    
    37   18   19 1    
    38   18   37 1    
    39   18   88 1    
    40   19   20 am   BACKBONE|DICT|INTERRES
    41   19   89 1    
    42   20   21 2    
    43   20   22 1    
    44   22   23 1    
    45   22   24 1    
    46   22   90 1    
    47   23   91 1    
    48   23   92 1    
    49   23   93 1    
    50   24   25 am   BACKBONE|DICT|INTERRES
    51   24   94 1    
    52   25   26 2    
    53   25   27 1    
    54   27   28 1    
    55   27   29 1    
    56   27   95 1    
    57   28   96 1    
    58   28   97 1    
    59   28   98 1    
    60   29   30 am   BACKBONE|DICT|INTERRES
    61   29   99 1    
    62   30   31 2    
    63   30   32 1    
    64   32   33 1    
    65   32   34 1    
    66   32  100 1    
    67   33  101 1    
    68   33  102 1    
    69   33  103 1    
    70   34   35 am   BACKBONE|DICT|INTERRES
    71   34  104 1    
    72   35   36 2    
    73   37   38 2    
    74   37   39 am   BACKBONE|DICT|INTERRES
    75   39   40 1    
    76   39  105 1    
    77   40   41 1    
    78   40   42 1    
    79   40  106 1    
    80   41  107 1    
    81   41  108 1    
    82   41  109 1    
    83   42   43 2    
    84   42   44 am   BACKBONE|DICT|INTERRES
    85   44   45 1    
    86   44  110 1    
    87   45   46 1    
    88   45   47 1    
    89   45  111 1    
    90   46  112 1    
    91   46  113 1    
    92   46  114 1    
    93   47   48 2    
    94   47   49 am   BACKBONE|DICT|INTERRES
    95   49   50 1    
    96   49  115 1    
    97   50   51 1    
    98   50   52 1    
    99   50  116 1    
   100   51  117 1    
   101   51  118 1    
   102   51  119 1    
   103   52   53 2    
   104   52   54 am   BACKBONE|DICT|INTERRES
   105   54   55 1    
   106   54  120 1    
   107   55   56 1    
   108   55   57 1    
   109   55  121 1    
   110   56  122 1    
   111   56  123 1    
   112   56  124 1    
   113   57   58 2    
   114   57   59 am   BACKBONE|DICT|INTERRES
   115   59   60 1    
   116   59  125 1    
   117   60   61 1    
   118   60   62 1    
   119   60  126 1    
   120   61  127 1    
   121   61  128 1    
   122   61  129 1    
   123   62   63 2    
   124   62   64 am   BACKBONE|DICT|INTERRES
   125   64   65 1    
   126   64  130 1    
   127   65   66 1    
   128   65   69 1    
   129   65  131 1    
   130   66   67 am   BACKBONE|DICT|INTERRES
   131   66   68 2    
   132   67  132 1    
   133   67  133 1    
   134   69   70 1    
   135   69  134 1    
   136   69  135 1    
   137   70   71 1    
   138   71  136 1    
   139   71  137 1    
@<TRIPOS>SUBSTRUCTURE
     1 UNK         1 GROUP             0       ****    0 ROOT    
