@<TRIPOS>MOLECULE
3R136
137   139    1
SMALL
USER_CHARGES


@<TRIPOS>ATOM
      1 CA         26.6220   23.0053    1.5852 C.3       0 UNK        -0.1979 
      2 C          27.6918   22.3504    0.7236 C.2       0 UNK         0.4864 
      3 O          27.8974   21.1394    0.8197 O.2       0 UNK        -0.5359 
      4 N          28.3708   23.1505   -0.1040 N.am      1 UNK        -0.4318 
      5 CA         29.4357   22.7384   -1.0215 C.3       1 UNK         0.0824 
      6 C6         30.8073   23.3916   -0.6672 C.3       12 UNK        -0.0944 
      7 S7         31.2673   23.2502    1.0945 S.3       12 UNK        -0.2672 
      8 C8         30.7734   24.9140    1.6414 C.3       12 UNK         0.0333 
      9 C9         30.7774   25.0647    3.1527 C.ar      12 UNK        -0.0807 
     10 C10        31.7159   25.8937    3.7742 C.ar      12 UNK        -0.0894 
     11 C11        31.6570   26.1212    5.1513 C.ar      12 UNK        -0.0804 
     12 C12        30.6706   25.4893    5.9123 C.ar      12 UNK        -0.0824 
     13 C13        29.7308   24.6527    5.3027 C.ar      12 UNK        -0.0762 
     14 C14        29.7920   24.4385    3.9223 C.ar      12 UNK        -0.0782 
     15 C15        28.6359   24.0108    6.1402 C.3       12 UNK         0.0230 
     16 S16        27.4038   25.2421    6.6754 S.3       12 UNK        -0.2608 
     17 C17        26.4107   25.4889    5.1629 C.3       12 UNK        -0.0989 
     18 CA         26.8790   26.6397    4.2315 C.3       5 UNK         0.0716 
     19 N          26.1371   26.5866    2.9629 N.am      5 UNK        -0.4135 
     20 C          26.3479   27.3666    1.8953 C.2       4 UNK         0.5031 
     21 O          27.1558   28.2953    1.8713 O.2       4 UNK        -0.5229 
     22 CA         25.4490   27.1118    0.6744 C.3       4 UNK         0.0329 
     23 CB         24.1637   27.9485    0.7855 C.3       4 UNK        -0.2001 
     24 N          26.1173   27.4330   -0.5896 N.am      4 UNK        -0.4303 
     25 C          27.1990   26.8033   -1.0640 C.2       3 UNK         0.5044 
     26 O          27.7513   25.8560   -0.4946 O.2       3 UNK        -0.5152 
     27 CA         27.7584   27.3231   -2.3963 C.3       3 UNK         0.0319 
     28 CB         28.6066   28.5866   -2.1699 C.3       3 UNK        -0.2001 
     29 N          28.6004   26.2822   -2.9791 N.am      3 UNK        -0.4354 
     30 C          28.4436   25.7044   -4.1772 C.2       2 UNK         0.4964 
     31 O          27.6439   26.0915   -5.0297 O.2       2 UNK        -0.5047 
     32 CA         29.3203   24.4668   -4.4680 C.3       2 UNK         0.0288 
     33 CB         30.5573   24.8633   -5.2906 C.3       2 UNK        -0.2113 
     34 N          29.7532   23.7853   -3.2414 N.am      2 UNK        -0.4145 
     35 C          28.9358   23.0806   -2.4426 C.2       1 UNK         0.5006 
     36 O          27.7955   22.7493   -2.7786 O.2       1 UNK        -0.5103 
     37 C          26.8298   28.0290    4.9139 C.2       5 UNK         0.5055 
     38 O          27.8165   28.4489    5.5190 O.2       5 UNK        -0.5220 
     39 N          25.7003   28.7363    4.7690 N.am      6 UNK        -0.4450 
     40 CA         25.5111   30.1013    5.2652 C.3       6 UNK         0.0367 
     41 CB         24.0032   30.3791    5.3847 C.3       6 UNK        -0.1929 
     42 C          26.1832   31.1819    4.3939 C.2       6 UNK         0.5070 
     43 O          26.3634   32.3002    4.8773 O.2       6 UNK        -0.5237 
     44 N          26.5063   30.8611    3.1333 N.am      7 UNK        -0.4739 
     45 CA         27.0482   31.8013    2.1484 C.3       7 UNK         0.0276 
     46 CB         26.3052   31.6089    0.8151 C.3       7 UNK        -0.1927 
     47 C          28.5589   31.6245    1.9365 C.2       7 UNK         0.5013 
     48 O          29.2536   32.6187    1.7218 O.2       7 UNK        -0.5193 
     49 N          29.0334   30.3723    1.9615 N.am      8 UNK        -0.4253 
     50 CA         30.4154   29.9815    1.6912 C.3       8 UNK         0.0242 
     51 CB         30.4928   28.4486    1.6257 C.3       8 UNK        -0.2000 
     52 C          31.4047   30.5333    2.7322 C.2       8 UNK         0.4948 
     53 O          31.2958   30.2084    3.9155 O.2       8 UNK        -0.5275 
     54 N          32.3773   31.3226    2.2594 N.am      9 UNK        -0.4246 
     55 CA         33.4547   31.9070    3.0667 C.3       9 UNK         0.0261 
     56 CB         33.7987   33.2943    2.4965 C.3       9 UNK        -0.1959 
     57 C          34.7136   31.0193    3.1292 C.2       9 UNK         0.5033 
     58 O          35.6901   31.4111    3.7703 O.2       9 UNK        -0.5390 
     59 N          34.6843   29.8531    2.4650 N.am      10 UNK        -0.4215 
     60 CA         35.8011   28.9159    2.2808 C.3       10 UNK         0.0240 
     61 CB         35.3146   27.7248    1.4377 C.3       10 UNK        -0.1982 
     62 C          36.4729   28.4121    3.5727 C.2       10 UNK         0.4970 
     63 O          37.6447   28.0353    3.5278 O.2       10 UNK        -0.4916 
     64 N          35.7345   28.4195    4.6882 N.am      11 UNK        -0.4279 
     65 CA         36.2400   28.0889    6.0290 C.3       11 UNK         0.1003 
     66 C          37.1205   29.2028    6.6700 C.2       11 UNK         0.5709 
     67 N          37.1856   30.4113    6.1210 N.am      11 UNK        -0.7358 
     68 O          37.7674   28.9603    7.6862 O.2       11 UNK        -0.4999 
     69 C69        35.0954   27.6655    6.9866 C.3       12 UNK        -0.0954 
     70 S70        34.1374   26.2452    6.3589 S.3       12 UNK        -0.2268 
     71 C71        32.6260   27.0889    5.8080 C.3       12 UNK         0.0203 
     72 H72        26.7535   22.7228    2.6293 H         1 UNK         0.0888 
     73 H73        26.6666   24.0916    1.5197 H         1 UNK         0.0888 
     74 H74        25.6320   22.6824    1.2645 H         1 UNK         0.0888 
     75 H75        28.1048   24.1324   -0.1795 H         1 UNK         0.3017 
     76 H76        29.5597   21.6542   -0.9911 H         1 UNK         0.0873 
     77 H77        31.6033   22.9248   -1.2501 H         1 UNK         0.0745 
     78 H78        30.8200   24.4516   -0.9278 H         1 UNK         0.0745 
     79 H79        31.4407   25.6427    1.1795 H         1 UNK         0.0705 
     80 H80        29.7720   25.1432    1.2751 H         1 UNK         0.0705 
     81 H81        32.4712   26.3924    3.1834 H         1 UNK         0.1334 
     82 H82        30.6150   25.6703    6.9772 H         1 UNK         0.1417 
     83 H83        29.0600   23.8062    3.4392 H         1 UNK         0.1562 
     84 H84        29.0848   23.5568    7.0250 H         1 UNK         0.0748 
     85 H85        28.1453   23.2003    5.5990 H         1 UNK         0.0748 
     86 H86        25.3768   25.6557    5.4713 H         1 UNK         0.0940 
     87 H87        26.4005   24.5471    4.6122 H         1 UNK         0.0940 
     88 H88        27.9254   26.4685    3.9752 H         1 UNK         0.0703 
     89 H89        25.4157   25.8829    2.9047 H         1 UNK         0.3081 
     90 H90        25.1809   26.0536    0.6495 H         1 UNK         0.0719 
     91 H91        24.3774   29.0181    0.8096 H         1 UNK         0.0809 
     92 H92        23.4938   27.7601   -0.0538 H         1 UNK         0.0809 
     93 H93        23.6118   27.7066    1.6947 H         1 UNK         0.0809 
     94 H94        25.7477   28.2166   -1.1072 H         1 UNK         0.2990 
     95 H95        26.9210   27.5579   -3.0567 H         1 UNK         0.0690 
     96 H96        28.9886   28.9772   -3.1132 H         1 UNK         0.0788 
     97 H97        29.4610   28.3895   -1.5218 H         1 UNK         0.0788 
     98 H98        28.0206   29.3802   -1.7042 H         1 UNK         0.0788 
     99 H99        29.2345   25.8501   -2.3236 H         1 UNK         0.2993 
    100 H100       28.7214   23.7707   -5.0598 H         1 UNK         0.0949 
    101 H101       31.1548   23.9903   -5.5545 H         1 UNK         0.0767 
    102 H102       30.2653   25.3479   -6.2235 H         1 UNK         0.0767 
    103 H103       31.1986   25.5597   -4.7488 H         1 UNK         0.0767 
    104 H104       30.6926   23.9805   -2.9267 H         1 UNK         0.3013 
    105 H105       24.9323   28.3248    4.2597 H         1 UNK         0.3121 
    106 H106       25.9480   30.1717    6.2640 H         1 UNK         0.0774 
    107 H107       23.8209   31.3764    5.7878 H         1 UNK         0.0815 
    108 H108       23.5036   30.3241    4.4166 H         1 UNK         0.0815 
    109 H109       23.5195   29.6688    6.0554 H         1 UNK         0.0815 
    110 H110       26.4106   29.8989    2.8296 H         1 UNK         0.2987 
    111 H111       26.8817   32.8296    2.4774 H         1 UNK         0.0949 
    112 H112       26.4430   30.6035    0.4151 H         1 UNK         0.0806 
    113 H113       25.2349   31.7804    0.9298 H         1 UNK         0.0806 
    114 H114       26.6667   32.3109    0.0625 H         1 UNK         0.0806 
    115 H115       28.3731   29.6100    2.0995 H         1 UNK         0.3010 
    116 H116       30.6778   30.3738    0.7064 H         1 UNK         0.0829 
    117 H117       29.8441   28.0472    0.8472 H         1 UNK         0.0813 
    118 H118       31.5083   28.1148    1.4111 H         1 UNK         0.0813 
    119 H119       30.1863   27.9976    2.5706 H         1 UNK         0.0813 
    120 H120       32.3793   31.5561    1.2758 H         1 UNK         0.3038 
    121 H121       33.1070   32.0421    4.0932 H         1 UNK         0.0769 
    122 H122       34.1855   33.2296    1.4787 H         1 UNK         0.0811 
    123 H123       34.5581   33.7908    3.1023 H         1 UNK         0.0811 
    124 H124       32.9239   33.9449    2.4832 H         1 UNK         0.0811 
    125 H125       33.8315   29.6279    1.9762 H         1 UNK         0.3204 
    126 H126       36.5688   29.4452    1.7129 H         1 UNK         0.0748 
    127 H127       34.9406   28.0491    0.4663 H         1 UNK         0.0771 
    128 H128       36.1271   27.0214    1.2487 H         1 UNK         0.0771 
    129 H129       34.5185   27.1734    1.9393 H         1 UNK         0.0771 
    130 H130       34.7886   28.7625    4.6385 H         1 UNK         0.2980 
    131 H131       36.8989   27.2251    5.9208 H         1 UNK         0.0545 
    132 H132       36.6601   30.6406    5.2826 H         1 UNK         0.3459 
    133 H133       37.7657   31.1132    6.5515 H         1 UNK         0.3459 
    134 H134       34.4268   28.5060    7.1816 H         1 UNK         0.0616 
    135 H135       35.5018   27.3732    7.9566 H         1 UNK         0.0616 
    136 H136       32.1501   27.5727    6.6625 H         1 UNK         0.0634 
    137 H137       32.8819   27.8857    5.1084 H         1 UNK         0.0634 
@<TRIPOS>BOND
     1    1    2 1    
     2    1   72 1    
     3    1   73 1    
     4    1   74 1    
     5    2    3 2    
     6    2    4 am   BACKBONE|DICT|INTERRES
     7    4    5 1    
     8    4   75 1    
     9    5    6 1    
    10    5   35 1    
    11    5   76 1    
    12    6    7 1    
    13    6   77 1    
    14    6   78 1    
    15    7    8 1    
    16    8    9 1    
    17    8   79 1    
    18    8   80 1    
    19    9   10 ar   
    20    9   14 ar   
    21   10   11 ar   
    22   10   81 1    
    23   11   12 ar   
    24   11   71 1    
    25   12   13 ar   
    26   12   82 1    
    27   13   14 ar   
    28   13   15 1    
    29   14   83 1    
    30   15   16 1    
    31   15   84 1    
    32   15   85 1    
    33   16   17 1    
    34   17   18 1    
    35   17   86 1    
    36   17   87 1    
    37   18   19 1    
    38   18   37 1    
    39   18   88 1    
    40   19   20 am   BACKBONE|DICT|INTERRES
    41   19   89 1    
    42   20   21 2    
    43   20   22 1    
    44   22   23 1    
    45   22   24 1    
    46   22   90 1    
    47   23   91 1    
    48   23   92 1    
    49   23   93 1    
    50   24   25 am   BACKBONE|DICT|INTERRES
    51   24   94 1    
    52   25   26 2    
    53   25   27 1    
    54   27   28 1    
    55   27   29 1    
    56   27   95 1    
    57   28   96 1    
    58   28   97 1    
    59   28   98 1    
    60   29   30 am   BACKBONE|DICT|INTERRES
    61   29   99 1    
    62   30   31 2    
    63   30   32 1    
    64   32   33 1    
    65   32   34 1    
    66   32  100 1    
    67   33  101 1    
    68   33  102 1    
    69   33  103 1    
    70   34   35 am   BACKBONE|DICT|INTERRES
    71   34  104 1    
    72   35   36 2    
    73   37   38 2    
    74   37   39 am   BACKBONE|DICT|INTERRES
    75   39   40 1    
    76   39  105 1    
    77   40   41 1    
    78   40   42 1    
    79   40  106 1    
    80   41  107 1    
    81   41  108 1    
    82   41  109 1    
    83   42   43 2    
    84   42   44 am   BACKBONE|DICT|INTERRES
    85   44   45 1    
    86   44  110 1    
    87   45   46 1    
    88   45   47 1    
    89   45  111 1    
    90   46  112 1    
    91   46  113 1    
    92   46  114 1    
    93   47   48 2    
    94   47   49 am   BACKBONE|DICT|INTERRES
    95   49   50 1    
    96   49  115 1    
    97   50   51 1    
    98   50   52 1    
    99   50  116 1    
   100   51  117 1    
   101   51  118 1    
   102   51  119 1    
   103   52   53 2    
   104   52   54 am   BACKBONE|DICT|INTERRES
   105   54   55 1    
   106   54  120 1    
   107   55   56 1    
   108   55   57 1    
   109   55  121 1    
   110   56  122 1    
   111   56  123 1    
   112   56  124 1    
   113   57   58 2    
   114   57   59 am   BACKBONE|DICT|INTERRES
   115   59   60 1    
   116   59  125 1    
   117   60   61 1    
   118   60   62 1    
   119   60  126 1    
   120   61  127 1    
   121   61  128 1    
   122   61  129 1    
   123   62   63 2    
   124   62   64 am   BACKBONE|DICT|INTERRES
   125   64   65 1    
   126   64  130 1    
   127   65   66 1    
   128   65   69 1    
   129   65  131 1    
   130   66   67 am   BACKBONE|DICT|INTERRES
   131   66   68 2    
   132   67  132 1    
   133   67  133 1    
   134   69   70 1    
   135   69  134 1    
   136   69  135 1    
   137   70   71 1    
   138   71  136 1    
   139   71  137 1    
@<TRIPOS>SUBSTRUCTURE
     1 UNK         1 GROUP             0       ****    0 ROOT    
