@<TRIPOS>MOLECULE
3R136
137   139    1
SMALL
USER_CHARGES


@<TRIPOS>ATOM
      1 CA         25.8389   20.2383    1.8732 C.3       0 UNK        -0.1979 
      2 C          26.4088   21.4515    1.1533 C.2       0 UNK         0.4864 
      3 O          25.7809   21.9619    0.2259 O.2       0 UNK        -0.5359 
      4 N          27.5941   21.9144    1.5726 N.am      1 UNK        -0.4318 
      5 CA         28.2965   23.0689    0.9986 C.3       1 UNK         0.0824 
      6 C6         29.7617   23.1431    1.4849 C.3       12 UNK        -0.0944 
      7 S7         30.8052   21.8103    0.8046 S.3       12 UNK        -0.2672 
      8 C8         32.4468   22.2228    1.5000 C.3       12 UNK         0.0333 
      9 C9         32.7718   23.7082    1.3914 C.ar      12 UNK        -0.0807 
     10 C10        32.9602   24.4742    2.5447 C.ar      12 UNK        -0.0894 
     11 C11        33.1727   25.8524    2.4545 C.ar      12 UNK        -0.0804 
     12 C12        33.1724   26.4683    1.1987 C.ar      12 UNK        -0.0824 
     13 C13        32.9761   25.7165    0.0339 C.ar      12 UNK        -0.0762 
     14 C14        32.8164   24.3288    0.1404 C.ar      12 UNK        -0.0782 
     15 C15        32.9291   26.4333   -1.3173 C.3       12 UNK         0.0230 
     16 S16        31.9298   25.6013   -2.6070 S.3       12 UNK        -0.2608 
     17 C17        30.2738   25.5233   -1.8391 C.3       12 UNK        -0.0989 
     18 CA         29.2677   26.5128   -2.4777 C.3       5 UNK         0.0716 
     19 N          27.8852   26.1454   -2.1794 N.am      5 UNK        -0.4135 
     20 C          26.8589   26.2658   -3.0302 C.2       4 UNK         0.5031 
     21 O          26.9719   26.6011   -4.2101 O.2       4 UNK        -0.5229 
     22 CA         25.4602   25.9782   -2.4599 C.3       4 UNK         0.0329 
     23 CB         25.2288   24.4653   -2.3204 C.3       4 UNK        -0.2001 
     24 N          25.2363   26.6280   -1.1672 N.am      4 UNK        -0.4303 
     25 C          25.1705   27.9506   -0.9641 C.2       3 UNK         0.5044 
     26 O          25.2429   28.7815   -1.8697 O.2       3 UNK        -0.5152 
     27 CA         25.0177   28.4511    0.4849 C.3       3 UNK         0.0319 
     28 CB         23.5441   28.7458    0.8266 C.3       3 UNK        -0.2001 
     29 N          25.6555   27.5958    1.4952 N.am      3 UNK        -0.4354 
     30 C          25.3019   26.3774    1.9223 C.2       2 UNK         0.4964 
     31 O          24.3175   25.7550    1.5207 O.2       2 UNK        -0.5047 
     32 CA         26.2528   25.7221    2.9367 C.3       2 UNK         0.0288 
     33 CB         25.5183   25.3923    4.2468 C.3       2 UNK        -0.2113 
     34 N          26.8824   24.5070    2.4150 N.am      2 UNK        -0.4145 
     35 C          27.6041   24.4168    1.2866 C.2       1 UNK         0.5006 
     36 O          27.7755   25.3489    0.4967 O.2       1 UNK        -0.5103 
     37 C          29.5047   27.9580   -2.0105 C.2       5 UNK         0.5055 
     38 O          29.8825   28.8078   -2.8186 O.2       5 UNK        -0.5220 
     39 N          29.2594   28.2109   -0.7192 N.am      6 UNK        -0.4450 
     40 CA         29.4355   29.4929   -0.0454 C.3       6 UNK         0.0367 
     41 CB         30.9364   29.8146    0.1135 C.3       6 UNK        -0.1929 
     42 C          28.7608   29.4076    1.3270 C.2       6 UNK         0.5070 
     43 O          28.3672   28.3190    1.7547 O.2       6 UNK        -0.5237 
     44 N          28.6544   30.5498    2.0126 N.am      7 UNK        -0.4739 
     45 CA         28.2942   30.6070    3.4306 C.3       7 UNK         0.0276 
     46 CB         27.9603   32.0601    3.8047 C.3       7 UNK        -0.1927 
     47 C          29.4531   30.0854    4.2975 C.2       7 UNK         0.5013 
     48 O          30.6151   30.2343    3.9100 O.2       7 UNK        -0.5193 
     49 N          29.1295   29.5393    5.4787 N.am      8 UNK        -0.4253 
     50 CA         30.0915   28.9707    6.4360 C.3       8 UNK         0.0242 
     51 CB         29.3372   28.4256    7.6588 C.3       8 UNK        -0.2000 
     52 C          31.2029   29.9413    6.8783 C.2       8 UNK         0.4948 
     53 O          32.3160   29.4973    7.1610 O.2       8 UNK        -0.5275 
     54 N          30.9067   31.2488    6.8589 N.am      9 UNK        -0.4246 
     55 CA         31.8468   32.3491    7.0883 C.3       9 UNK         0.0261 
     56 CB         31.0739   33.6780    7.0596 C.3       9 UNK        -0.1959 
     57 C          33.0356   32.3988    6.1059 C.2       9 UNK         0.5033 
     58 O          34.0503   33.0105    6.4428 O.2       9 UNK        -0.5390 
     59 N          32.9181   31.7557    4.9321 N.am      10 UNK        -0.4215 
     60 CA         34.0193   31.5830    3.9797 C.3       10 UNK         0.0240 
     61 CB         33.4632   31.1108    2.6264 C.3       10 UNK        -0.1982 
     62 C          35.1034   30.6106    4.4820 C.2       10 UNK         0.4970 
     63 O          36.2571   30.7484    4.0729 O.2       10 UNK        -0.4916 
     64 N          34.7229   29.6626    5.3483 N.am      11 UNK        -0.4279 
     65 CA         35.6282   28.7084    6.0027 C.3       11 UNK         0.1003 
     66 C          35.9082   29.0967    7.4785 C.2       11 UNK         0.5709 
     67 N          34.9343   29.6114    8.2192 N.am      11 UNK        -0.7358 
     68 O          37.0294   28.9378    7.9553 O.2       11 UNK        -0.4999 
     69 C69        35.0883   27.2598    5.9090 C.3       12 UNK        -0.0954 
     70 S70        35.1462   26.6122    4.2058 S.3       12 UNK        -0.2268 
     71 C71        33.3953   26.6662    3.7203 C.3       12 UNK         0.0203 
     72 H72        25.6922   19.4198    1.1691 H         1 UNK         0.0888 
     73 H73        24.8741   20.4843    2.3161 H         1 UNK         0.0888 
     74 H74        26.4977   19.8879    2.6676 H         1 UNK         0.0888 
     75 H75        28.0794   21.4341    2.3173 H         1 UNK         0.3017 
     76 H76        28.2999   22.9507   -0.0875 H         1 UNK         0.0873 
     77 H77        29.8168   23.1202    2.5750 H         1 UNK         0.0745 
     78 H78        30.1991   24.0948    1.1793 H         1 UNK         0.0745 
     79 H79        32.4739   21.8977    2.5411 H         1 UNK         0.0705 
     80 H80        33.2112   21.6464    0.9772 H         1 UNK         0.0705 
     81 H81        32.9337   24.0012    3.5170 H         1 UNK         0.1334 
     82 H82        33.3230   27.5370    1.1306 H         1 UNK         0.1417 
     83 H83        32.6670   23.7265   -0.7447 H         1 UNK         0.1562 
     84 H84        33.9496   26.5413   -1.6864 H         1 UNK         0.0748 
     85 H85        32.5391   27.4440   -1.1881 H         1 UNK         0.0748 
     86 H86        30.3395   25.6570   -0.7582 H         1 UNK         0.0940 
     87 H87        29.9173   24.5015   -1.9794 H         1 UNK         0.0940 
     88 H88        29.4138   26.4843   -3.5600 H         1 UNK         0.0703 
     89 H89        27.6947   25.8698   -1.2171 H         1 UNK         0.3081 
     90 H90        24.7243   26.3726   -3.1637 H         1 UNK         0.0719 
     91 H91        25.9203   24.0139   -1.6079 H         1 UNK         0.0809 
     92 H92        24.2153   24.2476   -1.9831 H         1 UNK         0.0809 
     93 H93        25.3681   23.9587   -3.2763 H         1 UNK         0.0809 
     94 H94        25.1242   26.0275   -0.3581 H         1 UNK         0.2990 
     95 H95        25.5566   29.3986    0.5361 H         1 UNK         0.0690 
     96 H96        23.4431   29.1465    1.8352 H         1 UNK         0.0788 
     97 H97        22.9199   27.8549    0.7540 H         1 UNK         0.0788 
     98 H98        23.1288   29.4853    0.1407 H         1 UNK         0.0788 
     99 H99        26.5704   27.9282    1.7972 H         1 UNK         0.2993 
    100 H100       27.0563   26.4238    3.1706 H         1 UNK         0.0949 
    101 H101       25.0477   26.2835    4.6646 H         1 UNK         0.0767 
    102 H102       24.7331   24.6507    4.0931 H         1 UNK         0.0767 
    103 H103       26.2038   25.0057    5.0013 H         1 UNK         0.0767 
    104 H104       26.7819   23.6741    2.9752 H         1 UNK         0.3013 
    105 H105       28.9054   27.4805   -0.1088 H         1 UNK         0.3121 
    106 H106       28.9427   30.2725   -0.6297 H         1 UNK         0.0774 
    107 H107       31.4460   29.8670   -0.8482 H         1 UNK         0.0815 
    108 H108       31.4416   29.0637    0.7215 H         1 UNK         0.0815 
    109 H109       31.0836   30.7782    0.6018 H         1 UNK         0.0815 
    110 H110       29.0294   31.3963    1.6097 H         1 UNK         0.2987 
    111 H111       27.4131   29.9833    3.5980 H         1 UNK         0.0949 
    112 H112       28.8190   32.7200    3.6716 H         1 UNK         0.0806 
    113 H113       27.1425   32.4477    3.1969 H         1 UNK         0.0806 
    114 H114       27.6494   32.1363    4.8475 H         1 UNK         0.0806 
    115 H115       28.1538   29.4742    5.7320 H         1 UNK         0.3010 
    116 H116       30.5840   28.1331    5.9373 H         1 UNK         0.0829 
    117 H117       28.6244   27.6515    7.3741 H         1 UNK         0.0813 
    118 H118       30.0279   27.9780    8.3752 H         1 UNK         0.0813 
    119 H119       28.7909   29.2121    8.1809 H         1 UNK         0.0813 
    120 H120       29.9644   31.5096    6.6089 H         1 UNK         0.3038 
    121 H121       32.2648   32.2156    8.0882 H         1 UNK         0.0769 
    122 H122       30.6081   33.8529    6.0888 H         1 UNK         0.0811 
    123 H123       31.7378   34.5207    7.2585 H         1 UNK         0.0811 
    124 H124       30.2915   33.7004    7.8184 H         1 UNK         0.0811 
    125 H125       32.0480   31.2787    4.7057 H         1 UNK         0.3204 
    126 H126       34.4925   32.5558    3.8302 H         1 UNK         0.0748 
    127 H127       32.7136   31.8032    2.2433 H         1 UNK         0.0771 
    128 H128       34.2559   31.0440    1.8802 H         1 UNK         0.0771 
    129 H129       33.0030   30.1249    2.7001 H         1 UNK         0.0771 
    130 H130       33.7673   29.6546    5.6830 H         1 UNK         0.2980 
    131 H131       36.5976   28.7228    5.5006 H         1 UNK         0.0545 
    132 H132       35.1250   29.8679    9.1741 H         1 UNK         0.3459 
    133 H133       33.9848   29.6654    7.8584 H         1 UNK         0.3459 
    134 H134       35.6928   26.5863    6.5197 H         1 UNK         0.0616 
    135 H135       34.0729   27.1971    6.3048 H         1 UNK         0.0616 
    136 H136       32.7758   26.2679    4.5254 H         1 UNK         0.0634 
    137 H137       33.0885   27.7032    3.5751 H         1 UNK         0.0634 
@<TRIPOS>BOND
     1    1    2 1    
     2    1   72 1    
     3    1   73 1    
     4    1   74 1    
     5    2    3 2    
     6    2    4 am   BACKBONE|DICT|INTERRES
     7    4    5 1    
     8    4   75 1    
     9    5    6 1    
    10    5   35 1    
    11    5   76 1    
    12    6    7 1    
    13    6   77 1    
    14    6   78 1    
    15    7    8 1    
    16    8    9 1    
    17    8   79 1    
    18    8   80 1    
    19    9   10 ar   
    20    9   14 ar   
    21   10   11 ar   
    22   10   81 1    
    23   11   12 ar   
    24   11   71 1    
    25   12   13 ar   
    26   12   82 1    
    27   13   14 ar   
    28   13   15 1    
    29   14   83 1    
    30   15   16 1    
    31   15   84 1    
    32   15   85 1    
    33   16   17 1    
    34   17   18 1    
    35   17   86 1    
    36   17   87 1    
    37   18   19 1    
    38   18   37 1    
    39   18   88 1    
    40   19   20 am   BACKBONE|DICT|INTERRES
    41   19   89 1    
    42   20   21 2    
    43   20   22 1    
    44   22   23 1    
    45   22   24 1    
    46   22   90 1    
    47   23   91 1    
    48   23   92 1    
    49   23   93 1    
    50   24   25 am   BACKBONE|DICT|INTERRES
    51   24   94 1    
    52   25   26 2    
    53   25   27 1    
    54   27   28 1    
    55   27   29 1    
    56   27   95 1    
    57   28   96 1    
    58   28   97 1    
    59   28   98 1    
    60   29   30 am   BACKBONE|DICT|INTERRES
    61   29   99 1    
    62   30   31 2    
    63   30   32 1    
    64   32   33 1    
    65   32   34 1    
    66   32  100 1    
    67   33  101 1    
    68   33  102 1    
    69   33  103 1    
    70   34   35 am   BACKBONE|DICT|INTERRES
    71   34  104 1    
    72   35   36 2    
    73   37   38 2    
    74   37   39 am   BACKBONE|DICT|INTERRES
    75   39   40 1    
    76   39  105 1    
    77   40   41 1    
    78   40   42 1    
    79   40  106 1    
    80   41  107 1    
    81   41  108 1    
    82   41  109 1    
    83   42   43 2    
    84   42   44 am   BACKBONE|DICT|INTERRES
    85   44   45 1    
    86   44  110 1    
    87   45   46 1    
    88   45   47 1    
    89   45  111 1    
    90   46  112 1    
    91   46  113 1    
    92   46  114 1    
    93   47   48 2    
    94   47   49 am   BACKBONE|DICT|INTERRES
    95   49   50 1    
    96   49  115 1    
    97   50   51 1    
    98   50   52 1    
    99   50  116 1    
   100   51  117 1    
   101   51  118 1    
   102   51  119 1    
   103   52   53 2    
   104   52   54 am   BACKBONE|DICT|INTERRES
   105   54   55 1    
   106   54  120 1    
   107   55   56 1    
   108   55   57 1    
   109   55  121 1    
   110   56  122 1    
   111   56  123 1    
   112   56  124 1    
   113   57   58 2    
   114   57   59 am   BACKBONE|DICT|INTERRES
   115   59   60 1    
   116   59  125 1    
   117   60   61 1    
   118   60   62 1    
   119   60  126 1    
   120   61  127 1    
   121   61  128 1    
   122   61  129 1    
   123   62   63 2    
   124   62   64 am   BACKBONE|DICT|INTERRES
   125   64   65 1    
   126   64  130 1    
   127   65   66 1    
   128   65   69 1    
   129   65  131 1    
   130   66   67 am   BACKBONE|DICT|INTERRES
   131   66   68 2    
   132   67  132 1    
   133   67  133 1    
   134   69   70 1    
   135   69  134 1    
   136   69  135 1    
   137   70   71 1    
   138   71  136 1    
   139   71  137 1    
@<TRIPOS>SUBSTRUCTURE
     1 UNK         1 GROUP             0       ****    0 ROOT    
