@<TRIPOS>MOLECULE
3R136
137   139    1
SMALL
USER_CHARGES


@<TRIPOS>ATOM
      1 CA         26.9310   18.3591    0.6195 C.3       0 UNK        -0.1979 
      2 C          27.7456   19.5515    0.1404 C.2       0 UNK         0.4864 
      3 O          28.0952   19.6188   -1.0387 O.2       0 UNK        -0.5359 
      4 N          28.0503   20.4910    1.0460 N.am      1 UNK        -0.4318 
      5 CA         28.8401   21.6996    0.7710 C.3       1 UNK         0.0824 
      6 C6         29.3540   22.3614    2.0735 C.3       12 UNK        -0.0944 
      7 S7         30.3870   21.2494    3.0923 S.3       12 UNK        -0.2672 
      8 C8         32.0288   21.3773    2.3047 C.3       12 UNK         0.0333 
      9 C9         32.5679   22.8003    2.3155 C.ar      12 UNK        -0.0807 
     10 C10        33.0673   23.3609    3.4972 C.ar      12 UNK        -0.0894 
     11 C11        33.5066   24.6886    3.5177 C.ar      12 UNK        -0.0804 
     12 C12        33.4608   25.4443    2.3451 C.ar      12 UNK        -0.0824 
     13 C13        32.9515   24.9008    1.1639 C.ar      12 UNK        -0.0762 
     14 C14        32.5284   23.5698    1.1478 C.ar      12 UNK        -0.0782 
     15 C15        32.7800   25.7844   -0.0642 C.3       12 UNK         0.0230 
     16 S16        31.0269   26.0408   -0.5178 S.3       12 UNK        -0.2608 
     17 C17        30.1719   26.3171    1.0788 C.3       12 UNK        -0.0989 
     18 CA         29.5870   27.7397    1.2164 C.3       5 UNK         0.0716 
     19 N          28.5580   27.9900    0.2059 N.am      5 UNK        -0.4135 
     20 C          28.1226   29.1986   -0.1686 C.2       4 UNK         0.5031 
     21 O          28.5327   30.2588    0.3042 O.2       4 UNK        -0.5229 
     22 CA         26.9870   29.2156   -1.2069 C.3       4 UNK         0.0329 
     23 CB         27.5490   29.0514   -2.6279 C.3       4 UNK        -0.2001 
     24 N          25.9624   28.1930   -0.9595 N.am      4 UNK        -0.4303 
     25 C          25.2290   28.1164    0.1602 C.2       3 UNK         0.5044 
     26 O          25.3526   28.8926    1.1058 O.2       3 UNK        -0.5152 
     27 CA         24.2099   26.9726    0.2717 C.3       3 UNK         0.0319 
     28 CB         22.8503   27.4135   -0.2926 C.3       3 UNK        -0.2001 
     29 N          24.6199   25.7169   -0.3648 N.am      3 UNK        -0.4354 
     30 C          25.6901   24.9844   -0.0240 C.2       2 UNK         0.4964 
     31 O          26.5349   25.3469    0.7986 O.2       2 UNK        -0.5047 
     32 CA         25.7861   23.6081   -0.7098 C.3       2 UNK         0.0288 
     33 CB         26.0455   23.7380   -2.2270 C.3       2 UNK        -0.2113 
     34 N          26.7446   22.7011   -0.0608 N.am      2 UNK        -0.4145 
     35 C          28.0871   22.7360   -0.0943 C.2       1 UNK         0.5006 
     36 O          28.7424   23.5279   -0.7704 O.2       1 UNK        -0.5103 
     37 C          29.0826   27.9700    2.6587 C.2       5 UNK         0.5055 
     38 O          29.9124   28.0623    3.5635 O.2       5 UNK        -0.5220 
     39 N          27.7587   28.0326    2.8637 N.am      6 UNK        -0.4450 
     40 CA         27.1416   28.3861    4.1425 C.3       6 UNK         0.0367 
     41 CB         25.8203   27.6174    4.3097 C.3       6 UNK        -0.1929 
     42 C          26.9104   29.9025    4.2406 C.2       6 UNK         0.5070 
     43 O          27.1016   30.4735    5.3144 O.2       6 UNK        -0.5237 
     44 N          26.4932   30.5237    3.1275 N.am      7 UNK        -0.4739 
     45 CA         26.2409   31.9597    3.0050 C.3       7 UNK         0.0276 
     46 CB         25.5083   32.2388    1.6822 C.3       7 UNK        -0.1927 
     47 C          27.5225   32.8008    3.1094 C.2       7 UNK         0.5013 
     48 O          27.5411   33.7795    3.8578 O.2       7 UNK        -0.5193 
     49 N          28.5666   32.4071    2.3689 N.am      8 UNK        -0.4253 
     50 CA         29.8966   33.0099    2.4491 C.3       8 UNK         0.0242 
     51 CB         30.6099   32.8343    1.0982 C.3       8 UNK        -0.2000 
     52 C          30.7088   32.3377    3.5630 C.2       8 UNK         0.4948 
     53 O          30.5611   31.1349    3.7850 O.2       8 UNK        -0.5275 
     54 N          31.6196   33.0901    4.1937 N.am      9 UNK        -0.4246 
     55 CA         32.5757   32.5883    5.1904 C.3       9 UNK         0.0261 
     56 CB         33.0503   33.7625    6.0671 C.3       9 UNK        -0.1959 
     57 C          33.7464   31.8359    4.5222 C.2       9 UNK         0.5033 
     58 O          34.9097   32.1911    4.7205 O.2       9 UNK        -0.5390 
     59 N          33.4120   30.8238    3.7130 N.am      10 UNK        -0.4215 
     60 CA         34.3124   30.1171    2.7987 C.3       10 UNK         0.0240 
     61 CB         33.4730   29.2170    1.8798 C.3       10 UNK        -0.1982 
     62 C          35.4566   29.3336    3.4705 C.2       10 UNK         0.4970 
     63 O          36.4963   29.1508    2.8359 O.2       10 UNK        -0.4916 
     64 N          35.2628   28.9158    4.7273 N.am      11 UNK        -0.4279 
     65 CA         36.3010   28.3260    5.5924 C.3       11 UNK         0.1003 
     66 C          36.7403   29.2879    6.7371 C.2       11 UNK         0.5709 
     67 N          36.3921   30.5701    6.7106 N.am      11 UNK        -0.7358 
     68 O          37.4305   28.8731    7.6656 O.2       11 UNK        -0.4999 
     69 C69        35.8940   26.9213    6.1211 C.3       12 UNK        -0.0954 
     70 S70        35.7529   25.6906    4.7813 S.3       12 UNK        -0.2268 
     71 C71        33.9692   25.3465    4.8084 C.3       12 UNK         0.0203 
     72 H72        25.9940   18.2980    0.0665 H         1 UNK         0.0888 
     73 H73        27.4854   17.4357    0.4541 H         1 UNK         0.0888 
     74 H74        26.6946   18.4263    1.6813 H         1 UNK         0.0888 
     75 H75        27.7651   20.3667    2.0074 H         1 UNK         0.3017 
     76 H76        29.7115   21.3936    0.1880 H         1 UNK         0.0873 
     77 H77        28.5108   22.6834    2.6876 H         1 UNK         0.0745 
     78 H78        29.9140   23.2706    1.8551 H         1 UNK         0.0745 
     79 H79        32.7243   20.7240    2.8335 H         1 UNK         0.0705 
     80 H80        31.9686   20.9935    1.2852 H         1 UNK         0.0705 
     81 H81        33.0815   22.7725    4.4046 H         1 UNK         0.1334 
     82 H82        33.7925   26.4709    2.3700 H         1 UNK         0.1417 
     83 H83        32.1154   23.1546    0.2381 H         1 UNK         0.1562 
     84 H84        33.3014   25.3321   -0.9088 H         1 UNK         0.0748 
     85 H85        33.2425   26.7589    0.0910 H         1 UNK         0.0748 
     86 H86        30.8449   26.1146    1.9101 H         1 UNK         0.0940 
     87 H87        29.3761   25.5744    1.1632 H         1 UNK         0.0940 
     88 H88        30.3965   28.4554    1.0553 H         1 UNK         0.0703 
     89 H89        28.1432   27.1696   -0.2137 H         1 UNK         0.3081 
     90 H90        26.5003   30.1912   -1.1434 H         1 UNK         0.0719 
     91 H91        28.0205   28.0777   -2.7685 H         1 UNK         0.0809 
     92 H92        26.7664   29.1580   -3.3793 H         1 UNK         0.0809 
     93 H93        28.3028   29.8116   -2.8383 H         1 UNK         0.0809 
     94 H94        25.8009   27.5124   -1.6876 H         1 UNK         0.2990 
     95 H95        24.0805   26.7650    1.3361 H         1 UNK         0.0690 
     96 H96        22.0824   26.6604   -0.1141 H         1 UNK         0.0788 
     97 H97        22.8981   27.5983   -1.3665 H         1 UNK         0.0788 
     98 H98        22.5113   28.3358    0.1820 H         1 UNK         0.0788 
     99 H99        23.9853   25.3437   -1.0566 H         1 UNK         0.2993 
    100 H100       24.8136   23.1295   -0.5822 H         1 UNK         0.0949 
    101 H101       26.1760   22.7605   -2.6917 H         1 UNK         0.0767 
    102 H102       25.2086   24.2227   -2.7306 H         1 UNK         0.0767 
    103 H103       26.9344   24.3320   -2.4414 H         1 UNK         0.0767 
    104 H104       26.3294   22.0094    0.5468 H         1 UNK         0.3013 
    105 H105       27.1375   27.9453    2.0702 H         1 UNK         0.3121 
    106 H106       27.8017   28.0940    4.9624 H         1 UNK         0.0774 
    107 H107       25.3736   27.8241    5.2831 H         1 UNK         0.0815 
    108 H108       25.0865   27.8928    3.5524 H         1 UNK         0.0815 
    109 H109       25.9779   26.5405    4.2467 H         1 UNK         0.0815 
    110 H110       26.2745   29.9579    2.3110 H         1 UNK         0.2987 
    111 H111       25.5841   32.2543    3.8264 H         1 UNK         0.0949 
    112 H112       26.0998   31.9295    0.8195 H         1 UNK         0.0806 
    113 H113       24.5558   31.7101    1.6385 H         1 UNK         0.0806 
    114 H114       25.2951   33.3027    1.5697 H         1 UNK         0.0806 
    115 H115       28.4822   31.5726    1.7946 H         1 UNK         0.3010 
    116 H116       29.8055   34.0775    2.6612 H         1 UNK         0.0829 
    117 H117       30.0375   33.2831    0.2862 H         1 UNK         0.0813 
    118 H118       31.5910   33.3107    1.1070 H         1 UNK         0.0813 
    119 H119       30.7616   31.7812    0.8562 H         1 UNK         0.0813 
    120 H120       31.7193   34.0594    3.9265 H         1 UNK         0.3038 
    121 H121       32.0648   31.8753    5.8415 H         1 UNK         0.0769 
    122 H122       33.5793   34.5162    5.4825 H         1 UNK         0.0811 
    123 H123       33.7312   33.4176    6.8466 H         1 UNK         0.0811 
    124 H124       32.2122   34.2502    6.5653 H         1 UNK         0.0811 
    125 H125       32.4180   30.6178    3.6334 H         1 UNK         0.3204 
    126 H126       34.7880   30.8755    2.1732 H         1 UNK         0.0748 
    127 H127       34.1121   28.6346    1.2156 H         1 UNK         0.0771 
    128 H128       32.8528   28.5253    2.4507 H         1 UNK         0.0771 
    129 H129       32.8091   29.8088    1.2491 H         1 UNK         0.0771 
    130 H130       34.3830   29.1255    5.1745 H         1 UNK         0.2980 
    131 H131       37.2146   28.1861    5.0124 H         1 UNK         0.0545 
    132 H132       35.8824   30.9700    5.9299 H         1 UNK         0.3459 
    133 H133       36.6974   31.1691    7.4607 H         1 UNK         0.3459 
    134 H134       36.6443   26.5364    6.8139 H         1 UNK         0.0616 
    135 H135       34.9627   26.9774    6.6870 H         1 UNK         0.0616 
    136 H136       33.7371   24.7221    5.6725 H         1 UNK         0.0634 
    137 H137       33.4198   26.2801    4.9408 H         1 UNK         0.0634 
@<TRIPOS>BOND
     1    1    2 1    
     2    1   72 1    
     3    1   73 1    
     4    1   74 1    
     5    2    3 2    
     6    2    4 am   BACKBONE|DICT|INTERRES
     7    4    5 1    
     8    4   75 1    
     9    5    6 1    
    10    5   35 1    
    11    5   76 1    
    12    6    7 1    
    13    6   77 1    
    14    6   78 1    
    15    7    8 1    
    16    8    9 1    
    17    8   79 1    
    18    8   80 1    
    19    9   10 ar   
    20    9   14 ar   
    21   10   11 ar   
    22   10   81 1    
    23   11   12 ar   
    24   11   71 1    
    25   12   13 ar   
    26   12   82 1    
    27   13   14 ar   
    28   13   15 1    
    29   14   83 1    
    30   15   16 1    
    31   15   84 1    
    32   15   85 1    
    33   16   17 1    
    34   17   18 1    
    35   17   86 1    
    36   17   87 1    
    37   18   19 1    
    38   18   37 1    
    39   18   88 1    
    40   19   20 am   BACKBONE|DICT|INTERRES
    41   19   89 1    
    42   20   21 2    
    43   20   22 1    
    44   22   23 1    
    45   22   24 1    
    46   22   90 1    
    47   23   91 1    
    48   23   92 1    
    49   23   93 1    
    50   24   25 am   BACKBONE|DICT|INTERRES
    51   24   94 1    
    52   25   26 2    
    53   25   27 1    
    54   27   28 1    
    55   27   29 1    
    56   27   95 1    
    57   28   96 1    
    58   28   97 1    
    59   28   98 1    
    60   29   30 am   BACKBONE|DICT|INTERRES
    61   29   99 1    
    62   30   31 2    
    63   30   32 1    
    64   32   33 1    
    65   32   34 1    
    66   32  100 1    
    67   33  101 1    
    68   33  102 1    
    69   33  103 1    
    70   34   35 am   BACKBONE|DICT|INTERRES
    71   34  104 1    
    72   35   36 2    
    73   37   38 2    
    74   37   39 am   BACKBONE|DICT|INTERRES
    75   39   40 1    
    76   39  105 1    
    77   40   41 1    
    78   40   42 1    
    79   40  106 1    
    80   41  107 1    
    81   41  108 1    
    82   41  109 1    
    83   42   43 2    
    84   42   44 am   BACKBONE|DICT|INTERRES
    85   44   45 1    
    86   44  110 1    
    87   45   46 1    
    88   45   47 1    
    89   45  111 1    
    90   46  112 1    
    91   46  113 1    
    92   46  114 1    
    93   47   48 2    
    94   47   49 am   BACKBONE|DICT|INTERRES
    95   49   50 1    
    96   49  115 1    
    97   50   51 1    
    98   50   52 1    
    99   50  116 1    
   100   51  117 1    
   101   51  118 1    
   102   51  119 1    
   103   52   53 2    
   104   52   54 am   BACKBONE|DICT|INTERRES
   105   54   55 1    
   106   54  120 1    
   107   55   56 1    
   108   55   57 1    
   109   55  121 1    
   110   56  122 1    
   111   56  123 1    
   112   56  124 1    
   113   57   58 2    
   114   57   59 am   BACKBONE|DICT|INTERRES
   115   59   60 1    
   116   59  125 1    
   117   60   61 1    
   118   60   62 1    
   119   60  126 1    
   120   61  127 1    
   121   61  128 1    
   122   61  129 1    
   123   62   63 2    
   124   62   64 am   BACKBONE|DICT|INTERRES
   125   64   65 1    
   126   64  130 1    
   127   65   66 1    
   128   65   69 1    
   129   65  131 1    
   130   66   67 am   BACKBONE|DICT|INTERRES
   131   66   68 2    
   132   67  132 1    
   133   67  133 1    
   134   69   70 1    
   135   69  134 1    
   136   69  135 1    
   137   70   71 1    
   138   71  136 1    
   139   71  137 1    
@<TRIPOS>SUBSTRUCTURE
     1 UNK         1 GROUP             0       ****    0 ROOT    
