@<TRIPOS>MOLECULE
3R136
137   139    1
SMALL
USER_CHARGES


@<TRIPOS>ATOM
      1 CA         27.3499   23.2812    2.5286 C.3       0 UNK        -0.1979 
      2 C          27.3778   23.2371    1.0102 C.2       0 UNK         0.4864 
      3 O          26.3669   23.5118    0.3618 O.2       0 UNK        -0.5359 
      4 N          28.5461   22.8779    0.4671 N.am      1 UNK        -0.4318 
      5 CA         28.8404   22.5656   -0.9360 C.3       1 UNK         0.0824 
      6 C6         30.3256   22.1490   -1.1106 C.3       12 UNK        -0.0944 
      7 S7         31.5063   23.3758   -0.4360 S.3       12 UNK        -0.2672 
      8 C8         32.0252   22.5982    1.1316 C.3       12 UNK         0.0333 
      9 C9         32.1261   23.6151    2.2622 C.ar      12 UNK        -0.0807 
     10 C10        33.0400   24.6701    2.1752 C.ar      12 UNK        -0.0894 
     11 C11        33.1530   25.6000    3.2118 C.ar      12 UNK        -0.0804 
     12 C12        32.3539   25.4640    4.3500 C.ar      12 UNK        -0.0824 
     13 C13        31.4531   24.4017    4.4627 C.ar      12 UNK        -0.0762 
     14 C14        31.3353   23.4858    3.4110 C.ar      12 UNK        -0.0782 
     15 C15        30.6571   24.2081    5.7469 C.3       12 UNK         0.0230 
     16 S16        28.9238   24.7408    5.5937 S.3       12 UNK        -0.2608 
     17 C17        29.0666   26.5609    5.5473 C.3       12 UNK        -0.0989 
     18 CA         28.6093   27.1440    4.1891 C.3       5 UNK         0.0716 
     19 N          27.2341   26.7528    3.8514 N.am      5 UNK        -0.4135 
     20 C          26.6744   26.8944    2.6437 C.2       4 UNK         0.5031 
     21 O          27.2439   27.4321    1.6885 O.2       4 UNK        -0.5229 
     22 CA         25.2591   26.3058    2.4917 C.3       4 UNK         0.0329 
     23 CB         24.2157   27.0769    3.3292 C.3       4 UNK        -0.2001 
     24 N          24.8895   26.1832    1.0759 N.am      4 UNK        -0.4303 
     25 C          24.5030   27.1614    0.2427 C.2       3 UNK         0.5044 
     26 O          24.1480   28.2877    0.5933 O.2       3 UNK        -0.5152 
     27 CA         24.6625   26.8409   -1.2470 C.3       3 UNK         0.0319 
     28 CB         24.1043   27.9551   -2.1615 C.3       3 UNK        -0.2001 
     29 N          26.0949   26.6393   -1.4538 N.am      3 UNK        -0.4354 
     30 C          26.7059   26.2282   -2.5683 C.2       2 UNK         0.4964 
     31 O          26.1301   25.9689   -3.6255 O.2       2 UNK        -0.5047 
     32 CA         28.2301   26.0623   -2.4645 C.3       2 UNK         0.0288 
     33 CB         28.9167   27.3359   -1.9399 C.3       2 UNK        -0.2113 
     34 N          28.5801   24.9274   -1.6086 N.am      2 UNK        -0.4145 
     35 C          28.4371   23.6431   -1.9656 C.2       1 UNK         0.5006 
     36 O          28.0231   23.2820   -3.0692 O.2       1 UNK        -0.5103 
     37 C          28.8212   28.6709    4.1512 C.2       5 UNK         0.5055 
     38 O          29.9467   29.1139    3.9233 O.2       5 UNK        -0.5220 
     39 N          27.7454   29.4505    4.3386 N.am      6 UNK        -0.4450 
     40 CA         27.7409   30.9103    4.2182 C.3       6 UNK         0.0367 
     41 CB         26.3828   31.4626    4.6787 C.3       6 UNK        -0.1929 
     42 C          28.0663   31.3894    2.7932 C.2       6 UNK         0.5070 
     43 O          28.8277   32.3431    2.6376 O.2       6 UNK        -0.5237 
     44 N          27.5377   30.6899    1.7776 N.am      7 UNK        -0.4739 
     45 CA         27.8351   30.9441    0.3630 C.3       7 UNK         0.0276 
     46 CB         26.8007   30.2278   -0.5160 C.3       7 UNK        -0.1927 
     47 C          29.2634   30.5246   -0.0255 C.2       7 UNK         0.5013 
     48 O          29.8388   31.1119   -0.9412 O.2       7 UNK        -0.5193 
     49 N          29.8198   29.5475    0.7039 N.am      8 UNK        -0.4253 
     50 CA         31.2165   29.1165    0.6128 C.3       8 UNK         0.0242 
     51 CB         31.3108   27.6431    1.0437 C.3       8 UNK        -0.2000 
     52 C          32.1739   30.0021    1.4410 C.2       8 UNK         0.4948 
     53 O          33.3723   29.7205    1.4630 O.2       8 UNK        -0.5275 
     54 N          31.6410   31.0426    2.1036 N.am      9 UNK        -0.4246 
     55 CA         32.3276   32.0286    2.9450 C.3       9 UNK         0.0261 
     56 CB         33.3408   32.8529    2.1214 C.3       9 UNK        -0.1959 
     57 C          32.9373   31.4358    4.2298 C.2       9 UNK         0.5033 
     58 O          33.9599   31.9377    4.7018 O.2       9 UNK        -0.5390 
     59 N          32.3024   30.3905    4.7831 N.am      10 UNK        -0.4215 
     60 CA         32.6044   29.6713    6.0319 C.3       10 UNK         0.0240 
     61 CB         32.4808   30.5997    7.2553 C.3       10 UNK        -0.1982 
     62 C          33.9382   28.8998    6.0568 C.2       10 UNK         0.4970 
     63 O          33.9640   27.7990    6.6048 O.2       10 UNK        -0.4916 
     64 N          34.9932   29.4798    5.4711 N.am      11 UNK        -0.4279 
     65 CA         36.3510   28.9487    5.2503 C.3       11 UNK         0.1003 
     66 C          37.1226   28.4076    6.4945 C.2       11 UNK         0.5709 
     67 N          36.7132   28.7249    7.7166 N.am      11 UNK        -0.7358 
     68 O          38.1415   27.7344    6.3552 O.2       11 UNK        -0.4999 
     69 C69        36.4569   28.0577    3.9763 C.3       12 UNK        -0.0954 
     70 S70        35.6370   26.4310    4.0775 S.3       12 UNK        -0.2268 
     71 C71        34.1349   26.7545    3.1062 C.3       12 UNK         0.0203 
     72 H72        27.9150   22.4521    2.9542 H         1 UNK         0.0888 
     73 H73        27.7935   24.2074    2.8854 H         1 UNK         0.0888 
     74 H74        26.3295   23.2065    2.9020 H         1 UNK         0.0888 
     75 H75        29.3300   22.7374    1.0861 H         1 UNK         0.3017 
     76 H76        28.2300   21.6924   -1.1759 H         1 UNK         0.0873 
     77 H77        30.5618   21.9866   -2.1644 H         1 UNK         0.0745 
     78 H78        30.4944   21.1821   -0.6346 H         1 UNK         0.0745 
     79 H79        32.9966   22.1237    0.9857 H         1 UNK         0.0705 
     80 H80        31.3357   21.7992    1.4063 H         1 UNK         0.0705 
     81 H81        33.6599   24.7685    1.2944 H         1 UNK         0.1334 
     82 H82        32.4572   26.1726    5.1598 H         1 UNK         0.1417 
     83 H83        30.6435   22.6599    3.5041 H         1 UNK         0.1562 
     84 H84        31.1270   24.7357    6.5786 H         1 UNK         0.0748 
     85 H85        30.6712   23.1516    6.0188 H         1 UNK         0.0748 
     86 H86        30.0979   26.8488    5.7599 H         1 UNK         0.0940 
     87 H87        28.4674   26.9693    6.3635 H         1 UNK         0.0940 
     88 H88        29.2584   26.7237    3.4176 H         1 UNK         0.0703 
     89 H89        26.7201   26.2802    4.5813 H         1 UNK         0.3081 
     90 H90        25.2881   25.2853    2.8714 H         1 UNK         0.0719 
     91 H91        24.2521   28.1514    3.1467 H         1 UNK         0.0809 
     92 H92        23.2032   26.7347    3.1149 H         1 UNK         0.0809 
     93 H93        24.3834   26.9301    4.3965 H         1 UNK         0.0809 
     94 H94        25.1833   25.3090    0.6506 H         1 UNK         0.2990 
     95 H95        24.1361   25.9074   -1.4555 H         1 UNK         0.0690 
     96 H96        24.1456   27.6743   -3.2134 H         1 UNK         0.0788 
     97 H97        24.6549   28.8885   -2.0433 H         1 UNK         0.0788 
     98 H98        23.0586   28.1607   -1.9293 H         1 UNK         0.0788 
     99 H99        26.6627   26.8103   -0.6320 H         1 UNK         0.2993 
    100 H100       28.6093   25.8692   -3.4707 H         1 UNK         0.0949 
    101 H101       30.0019   27.2523   -2.0024 H         1 UNK         0.0767 
    102 H102       28.6269   28.2094   -2.5258 H         1 UNK         0.0767 
    103 H103       28.6601   27.5381   -0.9004 H         1 UNK         0.0767 
    104 H104       28.9354   25.1285   -0.6857 H         1 UNK         0.3013 
    105 H105       26.8606   29.0060    4.5334 H         1 UNK         0.3121 
    106 H106       28.5138   31.3024    4.8832 H         1 UNK         0.0774 
    107 H107       26.3636   32.5514    4.6133 H         1 UNK         0.0815 
    108 H108       25.5620   31.0854    4.0672 H         1 UNK         0.0815 
    109 H109       26.1782   31.1993    5.7165 H         1 UNK         0.0815 
    110 H110       26.9514   29.8913    1.9810 H         1 UNK         0.2987 
    111 H111       27.7499   32.0182    0.1825 H         1 UNK         0.0949 
    112 H112       26.8222   29.1505   -0.3607 H         1 UNK         0.0806 
    113 H113       25.7893   30.5743   -0.3025 H         1 UNK         0.0806 
    114 H114       26.9903   30.4094   -1.5748 H         1 UNK         0.0806 
    115 H115       29.2622   29.1226    1.4325 H         1 UNK         0.3010 
    116 H116       31.5345   29.1825   -0.4299 H         1 UNK         0.0829 
    117 H117       30.5793   27.0184    0.5328 H         1 UNK         0.0813 
    118 H118       32.2943   27.2385    0.8056 H         1 UNK         0.0813 
    119 H119       31.1613   27.5242    2.1165 H         1 UNK         0.0813 
    120 H120       30.6389   31.1723    2.0395 H         1 UNK         0.3038 
    121 H121       31.5515   32.7168    3.2826 H         1 UNK         0.0769 
    122 H122       33.7310   33.6884    2.7039 H         1 UNK         0.0811 
    123 H123       32.8784   33.2718    1.2277 H         1 UNK         0.0811 
    124 H124       34.1942   32.2507    1.8083 H         1 UNK         0.0811 
    125 H125       31.4828   30.0301    4.2935 H         1 UNK         0.3204 
    126 H126       31.8190   28.9186    6.1183 H         1 UNK         0.0748 
    127 H127       32.6074   30.0401    8.1831 H         1 UNK         0.0771 
    128 H128       33.2332   31.3888    7.2477 H         1 UNK         0.0771 
    129 H129       31.4994   31.0726    7.2944 H         1 UNK         0.0771 
    130 H130       34.8327   30.4190    5.1117 H         1 UNK         0.2980 
    131 H131       36.9184   29.8474    5.0068 H         1 UNK         0.0545 
    132 H132       37.2274   28.3855    8.5138 H         1 UNK         0.3459 
    133 H133       35.8741   29.2661    7.8465 H         1 UNK         0.3459 
    134 H134       36.0575   28.6029    3.1194 H         1 UNK         0.0616 
    135 H135       37.5059   27.8808    3.7337 H         1 UNK         0.0616 
    136 H136       34.4143   26.9307    2.0664 H         1 UNK         0.0634 
    137 H137       33.6554   27.6704    3.4526 H         1 UNK         0.0634 
@<TRIPOS>BOND
     1    1    2 1    
     2    1   72 1    
     3    1   73 1    
     4    1   74 1    
     5    2    3 2    
     6    2    4 am   BACKBONE|DICT|INTERRES
     7    4    5 1    
     8    4   75 1    
     9    5    6 1    
    10    5   35 1    
    11    5   76 1    
    12    6    7 1    
    13    6   77 1    
    14    6   78 1    
    15    7    8 1    
    16    8    9 1    
    17    8   79 1    
    18    8   80 1    
    19    9   10 ar   
    20    9   14 ar   
    21   10   11 ar   
    22   10   81 1    
    23   11   12 ar   
    24   11   71 1    
    25   12   13 ar   
    26   12   82 1    
    27   13   14 ar   
    28   13   15 1    
    29   14   83 1    
    30   15   16 1    
    31   15   84 1    
    32   15   85 1    
    33   16   17 1    
    34   17   18 1    
    35   17   86 1    
    36   17   87 1    
    37   18   19 1    
    38   18   37 1    
    39   18   88 1    
    40   19   20 am   BACKBONE|DICT|INTERRES
    41   19   89 1    
    42   20   21 2    
    43   20   22 1    
    44   22   23 1    
    45   22   24 1    
    46   22   90 1    
    47   23   91 1    
    48   23   92 1    
    49   23   93 1    
    50   24   25 am   BACKBONE|DICT|INTERRES
    51   24   94 1    
    52   25   26 2    
    53   25   27 1    
    54   27   28 1    
    55   27   29 1    
    56   27   95 1    
    57   28   96 1    
    58   28   97 1    
    59   28   98 1    
    60   29   30 am   BACKBONE|DICT|INTERRES
    61   29   99 1    
    62   30   31 2    
    63   30   32 1    
    64   32   33 1    
    65   32   34 1    
    66   32  100 1    
    67   33  101 1    
    68   33  102 1    
    69   33  103 1    
    70   34   35 am   BACKBONE|DICT|INTERRES
    71   34  104 1    
    72   35   36 2    
    73   37   38 2    
    74   37   39 am   BACKBONE|DICT|INTERRES
    75   39   40 1    
    76   39  105 1    
    77   40   41 1    
    78   40   42 1    
    79   40  106 1    
    80   41  107 1    
    81   41  108 1    
    82   41  109 1    
    83   42   43 2    
    84   42   44 am   BACKBONE|DICT|INTERRES
    85   44   45 1    
    86   44  110 1    
    87   45   46 1    
    88   45   47 1    
    89   45  111 1    
    90   46  112 1    
    91   46  113 1    
    92   46  114 1    
    93   47   48 2    
    94   47   49 am   BACKBONE|DICT|INTERRES
    95   49   50 1    
    96   49  115 1    
    97   50   51 1    
    98   50   52 1    
    99   50  116 1    
   100   51  117 1    
   101   51  118 1    
   102   51  119 1    
   103   52   53 2    
   104   52   54 am   BACKBONE|DICT|INTERRES
   105   54   55 1    
   106   54  120 1    
   107   55   56 1    
   108   55   57 1    
   109   55  121 1    
   110   56  122 1    
   111   56  123 1    
   112   56  124 1    
   113   57   58 2    
   114   57   59 am   BACKBONE|DICT|INTERRES
   115   59   60 1    
   116   59  125 1    
   117   60   61 1    
   118   60   62 1    
   119   60  126 1    
   120   61  127 1    
   121   61  128 1    
   122   61  129 1    
   123   62   63 2    
   124   62   64 am   BACKBONE|DICT|INTERRES
   125   64   65 1    
   126   64  130 1    
   127   65   66 1    
   128   65   69 1    
   129   65  131 1    
   130   66   67 am   BACKBONE|DICT|INTERRES
   131   66   68 2    
   132   67  132 1    
   133   67  133 1    
   134   69   70 1    
   135   69  134 1    
   136   69  135 1    
   137   70   71 1    
   138   71  136 1    
   139   71  137 1    
@<TRIPOS>SUBSTRUCTURE
     1 UNK         1 GROUP             0       ****    0 ROOT    
