@<TRIPOS>MOLECULE
3R136
137   139    1
SMALL
USER_CHARGES


@<TRIPOS>ATOM
      1 CA         30.5262   18.1597    1.6469 C.3       0 UNK        -0.1979 
      2 C          30.6501   19.4858    0.9113 C.2       0 UNK         0.4864 
      3 O          31.2390   19.5331   -0.1693 O.2       0 UNK        -0.5359 
      4 N          30.0940   20.5616    1.4852 N.am      1 UNK        -0.4318 
      5 CA         30.1467   21.9266    0.9393 C.3       1 UNK         0.0824 
      6 C6         29.9430   23.0024    2.0368 C.3       12 UNK        -0.0944 
      7 S7         31.1952   22.8754    3.3580 S.3       12 UNK        -0.2672 
      8 C8         30.1694   22.9921    4.8587 C.3       12 UNK         0.0333 
      9 C9         29.6096   24.3947    5.0492 C.ar      12 UNK        -0.0807 
     10 C10        30.4756   25.4572    5.3199 C.ar      12 UNK        -0.0894 
     11 C11        29.9823   26.7555    5.4705 C.ar      12 UNK        -0.0804 
     12 C12        28.6063   26.9831    5.3952 C.ar      12 UNK        -0.0824 
     13 C13        27.7288   25.9283    5.1281 C.ar      12 UNK        -0.0762 
     14 C14        28.2355   24.6359    4.9527 C.ar      12 UNK        -0.0782 
     15 C15        26.2337   26.1827    5.0225 C.3       12 UNK         0.0230 
     16 S16        25.7366   26.5288    3.3067 S.3       12 UNK        -0.2608 
     17 C17        26.2493   28.2713    3.0955 C.3       12 UNK        -0.0989 
     18 CA         27.5357   28.4359    2.2417 C.3       5 UNK         0.0716 
     19 N          27.3888   27.7979    0.9338 N.am      5 UNK        -0.4135 
     20 C          28.3757   27.3721    0.1395 C.2       4 UNK         0.5031 
     21 O          29.5724   27.5003    0.4079 O.2       4 UNK        -0.5229 
     22 CA         27.9361   26.6593   -1.1530 C.3       4 UNK         0.0329 
     23 CB         29.1221   26.2958   -2.0644 C.3       4 UNK        -0.2001 
     24 N          27.1656   25.4505   -0.8408 N.am      4 UNK        -0.4303 
     25 C          25.8654   25.4435   -0.5036 C.2       3 UNK         0.5044 
     26 O          25.1806   26.4688   -0.4866 O.2       3 UNK        -0.5152 
     27 CA         25.2247   24.1133   -0.0513 C.3       3 UNK         0.0319 
     28 CB         23.7687   23.9663   -0.5431 C.3       3 UNK        -0.2001 
     29 N          26.0128   22.9139   -0.3589 N.am      3 UNK        -0.4354 
     30 C          26.3237   22.4223   -1.5683 C.2       2 UNK         0.4964 
     31 O          25.9290   22.9053   -2.6307 O.2       2 UNK        -0.5047 
     32 CA         27.2596   21.1939   -1.5773 C.3       2 UNK         0.0288 
     33 CB         27.9586   20.9918   -2.9391 C.3       2 UNK        -0.2113 
     34 N          28.2548   21.1995   -0.4915 N.am      2 UNK        -0.4145 
     35 C          29.1655   22.1545   -0.2322 C.2       1 UNK         0.5006 
     36 O          29.2342   23.2091   -0.8631 O.2       1 UNK        -0.5103 
     37 C          27.9289   29.9174    2.0610 C.2       5 UNK         0.5055 
     38 O          27.1108   30.8087    2.3012 O.2       5 UNK        -0.5220 
     39 N          29.1582   30.1560    1.5877 N.am      6 UNK        -0.4450 
     40 CA         29.7047   31.4644    1.2194 C.3       6 UNK         0.0367 
     41 CB         30.9298   31.2563    0.3114 C.3       6 UNK        -0.1929 
     42 C          30.0261   32.3596    2.4328 C.2       6 UNK         0.5070 
     43 O          31.1937   32.6567    2.6882 O.2       6 UNK        -0.5237 
     44 N          28.9775   32.7771    3.1558 N.am      7 UNK        -0.4739 
     45 CA         28.9564   33.8043    4.2103 C.3       7 UNK         0.0276 
     46 CB         29.1303   35.2000    3.5746 C.3       7 UNK        -0.1927 
     47 C          29.9447   33.5696    5.3726 C.2       7 UNK         0.5013 
     48 O          30.4283   34.5351    5.9663 O.2       7 UNK        -0.5193 
     49 N          30.2346   32.2926    5.6627 N.am      8 UNK        -0.4253 
     50 CA         31.2203   31.8077    6.6380 C.3       8 UNK         0.0242 
     51 CB         30.8218   32.1951    8.0788 C.3       8 UNK        -0.2000 
     52 C          32.6806   32.1763    6.2969 C.2       8 UNK         0.4948 
     53 O          33.5252   32.1780    7.1951 O.2       8 UNK        -0.5275 
     54 N          32.9601   32.4599    5.0172 N.am      9 UNK        -0.4246 
     55 CA         34.2958   32.6978    4.4772 C.3       9 UNK         0.0261 
     56 CB         34.2594   33.9542    3.5814 C.3       9 UNK        -0.1959 
     57 C          34.7665   31.4188    3.7624 C.2       9 UNK         0.5033 
     58 O          34.7791   30.3504    4.3790 O.2       9 UNK        -0.5390 
     59 N          35.1493   31.5264    2.4839 N.am      10 UNK        -0.4215 
     60 CA         35.6124   30.4224    1.6401 C.3       10 UNK         0.0240 
     61 CB         36.4638   30.9990    0.4926 C.3       10 UNK        -0.1982 
     62 C          34.4397   29.5593    1.1337 C.2       10 UNK         0.4970 
     63 O          34.1677   29.5366   -0.0682 O.2       10 UNK        -0.4916 
     64 N          33.7512   28.8903    2.0658 N.am      11 UNK        -0.4279 
     65 CA         32.6404   27.9638    1.8043 C.3       11 UNK         0.1003 
     66 C          33.0417   26.7469    0.9242 C.2       11 UNK         0.5709 
     67 N          32.1012   26.2110    0.1605 N.am      11 UNK        -0.7358 
     68 O          34.1728   26.2642    0.9606 O.2       11 UNK        -0.4999 
     69 C69        31.9809   27.4755    3.1165 C.3       12 UNK        -0.0954 
     70 S70        31.2660   28.8139    4.1294 S.3       12 UNK        -0.2268 
     71 C71        30.9405   27.9162    5.6835 C.3       12 UNK         0.0203 
     72 H72        30.0019   17.4333    1.0265 H         1 UNK         0.0888 
     73 H73        31.5157   17.7634    1.8733 H         1 UNK         0.0888 
     74 H74        29.9803   18.2623    2.5846 H         1 UNK         0.0888 
     75 H75        29.6426   20.4675    2.3840 H         1 UNK         0.3017 
     76 H76        31.1447   22.0770    0.5210 H         1 UNK         0.0873 
     77 H77        30.0187   24.0076    1.6157 H         1 UNK         0.0745 
     78 H78        28.9418   22.9273    2.4646 H         1 UNK         0.0745 
     79 H79        29.3717   22.2489    4.8161 H         1 UNK         0.0705 
     80 H80        30.7820   22.7342    5.7237 H         1 UNK         0.0705 
     81 H81        31.5401   25.2752    5.3790 H         1 UNK         0.1334 
     82 H82        28.2235   27.9865    5.5193 H         1 UNK         0.1417 
     83 H83        27.5582   23.8205    4.7382 H         1 UNK         0.1562 
     84 H84        25.9328   27.0043    5.6743 H         1 UNK         0.0748 
     85 H85        25.6869   25.3062    5.3734 H         1 UNK         0.0748 
     86 H86        26.3779   28.7363    4.0742 H         1 UNK         0.0940 
     87 H87        25.4141   28.7970    2.6280 H         1 UNK         0.0940 
     88 H88        28.3559   27.9442    2.7687 H         1 UNK         0.0703 
     89 H89        26.4378   27.6187    0.6291 H         1 UNK         0.3081 
     90 H90        27.3020   27.3537   -1.7083 H         1 UNK         0.0719 
     91 H91        29.6726   27.1892   -2.3616 H         1 UNK         0.0809 
     92 H92        29.8285   25.6315   -1.5675 H         1 UNK         0.0809 
     93 H93        28.7852   25.8023   -2.9760 H         1 UNK         0.0809 
     94 H94        27.6901   24.5819   -0.8188 H         1 UNK         0.2990 
     95 H95        25.1915   24.1679    1.0379 H         1 UNK         0.0690 
     96 H96        23.3246   23.0330   -0.1970 H         1 UNK         0.0788 
     97 H97        23.7030   23.9874   -1.6311 H         1 UNK         0.0788 
     98 H98        23.1445   24.7777   -0.1666 H         1 UNK         0.0788 
     99 H99        26.3970   22.4355    0.4438 H         1 UNK         0.2993 
    100 H100       26.6177   20.3286   -1.4046 H         1 UNK         0.0949 
    101 H101       28.5758   21.8503   -3.2067 H         1 UNK         0.0767 
    102 H102       28.5989   20.1096   -2.9287 H         1 UNK         0.0767 
    103 H103       27.2301   20.8519   -3.7388 H         1 UNK         0.0767 
    104 H104       28.2675   20.3780    0.0966 H         1 UNK         0.3013 
    105 H105       29.7349   29.3477    1.3817 H         1 UNK         0.3121 
    106 H106       28.9492   31.9874    0.6290 H         1 UNK         0.0774 
    107 H107       31.7572   30.8019    0.8540 H         1 UNK         0.0815 
    108 H108       30.6963   30.6217   -0.5437 H         1 UNK         0.0815 
    109 H109       31.2893   32.2090   -0.0792 H         1 UNK         0.0815 
    110 H110       28.0754   32.3774    2.9065 H         1 UNK         0.2987 
    111 H111       27.9609   33.7652    4.6553 H         1 UNK         0.0949 
    112 H112       28.4060   35.3670    2.7774 H         1 UNK         0.0806 
    113 H113       28.9839   35.9914    4.3108 H         1 UNK         0.0806 
    114 H114       30.1285   35.3269    3.1533 H         1 UNK         0.0806 
    115 H115       29.7979   31.5828    5.0911 H         1 UNK         0.3010 
    116 H116       31.1849   30.7224    6.5798 H         1 UNK         0.0829 
    117 H117       30.9178   33.2671    8.2526 H         1 UNK         0.0813 
    118 H118       29.7930   31.9094    8.2971 H         1 UNK         0.0813 
    119 H119       31.4569   31.6922    8.8091 H         1 UNK         0.0813 
    120 H120       32.2113   32.4289    4.3291 H         1 UNK         0.3038 
    121 H121       35.0051   32.8872    5.2852 H         1 UNK         0.0769 
    122 H122       33.9043   34.8185    4.1433 H         1 UNK         0.0811 
    123 H123       33.5969   33.8323    2.7236 H         1 UNK         0.0811 
    124 H124       35.2531   34.2075    3.2097 H         1 UNK         0.0811 
    125 H125       35.0716   32.4298    2.0396 H         1 UNK         0.3204 
    126 H126       36.2586   29.7725    2.2344 H         1 UNK         0.0748 
    127 H127       35.8880   31.6763   -0.1396 H         1 UNK         0.0771 
    128 H128       37.3251   31.5474    0.8747 H         1 UNK         0.0771 
    129 H129       36.8474   30.2026   -0.1468 H         1 UNK         0.0771 
    130 H130       34.0136   29.0217    3.0367 H         1 UNK         0.2980 
    131 H131       31.8938   28.5272    1.2447 H         1 UNK         0.0545 
    132 H132       32.3181   25.4123   -0.4121 H         1 UNK         0.3459 
    133 H133       31.1632   26.6059    0.1628 H         1 UNK         0.3459 
    134 H134       32.7041   26.9240    3.7201 H         1 UNK         0.0616 
    135 H135       31.1723   26.7785    2.8863 H         1 UNK         0.0616 
    136 H136       30.5126   28.5978    6.4178 H         1 UNK         0.0634 
    137 H137       31.8855   27.5667    6.1022 H         1 UNK         0.0634 
@<TRIPOS>BOND
     1    1    2 1    
     2    1   72 1    
     3    1   73 1    
     4    1   74 1    
     5    2    3 2    
     6    2    4 am   BACKBONE|DICT|INTERRES
     7    4    5 1    
     8    4   75 1    
     9    5    6 1    
    10    5   35 1    
    11    5   76 1    
    12    6    7 1    
    13    6   77 1    
    14    6   78 1    
    15    7    8 1    
    16    8    9 1    
    17    8   79 1    
    18    8   80 1    
    19    9   10 ar   
    20    9   14 ar   
    21   10   11 ar   
    22   10   81 1    
    23   11   12 ar   
    24   11   71 1    
    25   12   13 ar   
    26   12   82 1    
    27   13   14 ar   
    28   13   15 1    
    29   14   83 1    
    30   15   16 1    
    31   15   84 1    
    32   15   85 1    
    33   16   17 1    
    34   17   18 1    
    35   17   86 1    
    36   17   87 1    
    37   18   19 1    
    38   18   37 1    
    39   18   88 1    
    40   19   20 am   BACKBONE|DICT|INTERRES
    41   19   89 1    
    42   20   21 2    
    43   20   22 1    
    44   22   23 1    
    45   22   24 1    
    46   22   90 1    
    47   23   91 1    
    48   23   92 1    
    49   23   93 1    
    50   24   25 am   BACKBONE|DICT|INTERRES
    51   24   94 1    
    52   25   26 2    
    53   25   27 1    
    54   27   28 1    
    55   27   29 1    
    56   27   95 1    
    57   28   96 1    
    58   28   97 1    
    59   28   98 1    
    60   29   30 am   BACKBONE|DICT|INTERRES
    61   29   99 1    
    62   30   31 2    
    63   30   32 1    
    64   32   33 1    
    65   32   34 1    
    66   32  100 1    
    67   33  101 1    
    68   33  102 1    
    69   33  103 1    
    70   34   35 am   BACKBONE|DICT|INTERRES
    71   34  104 1    
    72   35   36 2    
    73   37   38 2    
    74   37   39 am   BACKBONE|DICT|INTERRES
    75   39   40 1    
    76   39  105 1    
    77   40   41 1    
    78   40   42 1    
    79   40  106 1    
    80   41  107 1    
    81   41  108 1    
    82   41  109 1    
    83   42   43 2    
    84   42   44 am   BACKBONE|DICT|INTERRES
    85   44   45 1    
    86   44  110 1    
    87   45   46 1    
    88   45   47 1    
    89   45  111 1    
    90   46  112 1    
    91   46  113 1    
    92   46  114 1    
    93   47   48 2    
    94   47   49 am   BACKBONE|DICT|INTERRES
    95   49   50 1    
    96   49  115 1    
    97   50   51 1    
    98   50   52 1    
    99   50  116 1    
   100   51  117 1    
   101   51  118 1    
   102   51  119 1    
   103   52   53 2    
   104   52   54 am   BACKBONE|DICT|INTERRES
   105   54   55 1    
   106   54  120 1    
   107   55   56 1    
   108   55   57 1    
   109   55  121 1    
   110   56  122 1    
   111   56  123 1    
   112   56  124 1    
   113   57   58 2    
   114   57   59 am   BACKBONE|DICT|INTERRES
   115   59   60 1    
   116   59  125 1    
   117   60   61 1    
   118   60   62 1    
   119   60  126 1    
   120   61  127 1    
   121   61  128 1    
   122   61  129 1    
   123   62   63 2    
   124   62   64 am   BACKBONE|DICT|INTERRES
   125   64   65 1    
   126   64  130 1    
   127   65   66 1    
   128   65   69 1    
   129   65  131 1    
   130   66   67 am   BACKBONE|DICT|INTERRES
   131   66   68 2    
   132   67  132 1    
   133   67  133 1    
   134   69   70 1    
   135   69  134 1    
   136   69  135 1    
   137   70   71 1    
   138   71  136 1    
   139   71  137 1    
@<TRIPOS>SUBSTRUCTURE
     1 UNK         1 GROUP             0       ****    0 ROOT    
