@<TRIPOS>MOLECULE
3R136
137   139    1
SMALL
USER_CHARGES


@<TRIPOS>ATOM
      1 CA         25.8550   25.9141    2.9299 C.3       0 UNK        -0.1979 
      2 C          26.5240   24.8196    2.1128 C.2       0 UNK         0.4864 
      3 O          27.0861   25.1095    1.0525 O.2       0 UNK        -0.5359 
      4 N          26.4834   23.5756    2.6096 N.am      1 UNK        -0.4318 
      5 CA         27.0566   22.3660    2.0059 C.3       1 UNK         0.0824 
      6 C6         28.6084   22.3843    1.9308 C.3       12 UNK        -0.0944 
      7 S7         29.3707   22.3335    3.5846 S.3       12 UNK        -0.2672 
      8 C8         31.0835   21.8661    3.1773 C.3       12 UNK         0.0333 
      9 C9         31.8603   23.0111    2.5390 C.ar      12 UNK        -0.0807 
     10 C10        32.6708   23.8388    3.3231 C.ar      12 UNK        -0.0894 
     11 C11        33.4154   24.8670    2.7362 C.ar      12 UNK        -0.0804 
     12 C12        33.3313   25.0757    1.3553 C.ar      12 UNK        -0.0824 
     13 C13        32.5255   24.2539    0.5598 C.ar      12 UNK        -0.0762 
     14 C14        31.7994   23.2199    1.1580 C.ar      12 UNK        -0.0782 
     15 C15        32.4806   24.4403   -0.9524 C.3       12 UNK         0.0230 
     16 S16        31.7858   26.0456   -1.4597 S.3       12 UNK        -0.2608 
     17 C17        30.0446   25.9122   -0.9295 C.3       12 UNK        -0.0989 
     18 CA         29.5057   27.2628   -0.3956 C.3       5 UNK         0.0716 
     19 N          28.0432   27.3007   -0.3707 N.am      5 UNK        -0.4135 
     20 C          27.3120   28.4235   -0.3962 C.2       4 UNK         0.5031 
     21 O          27.7911   29.5468   -0.5557 O.2       4 UNK        -0.5229 
     22 CA         25.7929   28.2518   -0.2370 C.3       4 UNK         0.0329 
     23 CB         24.9943   29.5112   -0.6318 C.3       4 UNK        -0.2001 
     24 N          25.3406   27.0981   -1.0133 N.am      4 UNK        -0.4303 
     25 C          24.2579   26.3574   -0.7498 C.2       3 UNK         0.5044 
     26 O          23.4877   26.5583    0.1889 O.2       3 UNK        -0.5152 
     27 CA         24.0244   25.1686   -1.6843 C.3       3 UNK         0.0319 
     28 CB         23.8007   25.6438   -3.1378 C.3       3 UNK        -0.2001 
     29 N          25.1600   24.2533   -1.5664 N.am      3 UNK        -0.4354 
     30 C          25.2714   23.0521   -2.1486 C.2       2 UNK         0.4964 
     31 O          24.4290   22.5666   -2.9041 O.2       2 UNK        -0.5047 
     32 CA         26.5390   22.2419   -1.8244 C.3       2 UNK         0.0288 
     33 CB         27.6647   22.5853   -2.8142 C.3       2 UNK        -0.2113 
     34 N          27.0259   22.4402   -0.4571 N.am      2 UNK        -0.4145 
     35 C          26.3789   22.0595    0.6546 C.2       1 UNK         0.5006 
     36 O          25.2872   21.4875    0.6497 O.2       1 UNK        -0.5103 
     37 C          30.0495   27.6006    1.0032 C.2       5 UNK         0.5055 
     38 O          30.8957   28.4859    1.1355 O.2       5 UNK        -0.5220 
     39 N          29.4921   26.9471    2.0331 N.am      6 UNK        -0.4450 
     40 CA         29.8160   27.1828    3.4413 C.3       6 UNK         0.0367 
     41 CB         29.5706   25.9015    4.2524 C.3       6 UNK        -0.1929 
     42 C          29.0849   28.4070    4.0187 C.2       6 UNK         0.5070 
     43 O          28.4763   28.3239    5.0871 O.2       6 UNK        -0.5237 
     44 N          29.1607   29.5384    3.3100 N.am      7 UNK        -0.4739 
     45 CA         28.6075   30.8311    3.7119 C.3       7 UNK         0.0276 
     46 CB         28.3519   31.6787    2.4525 C.3       7 UNK        -0.1927 
     47 C          29.5269   31.5268    4.7335 C.2       7 UNK         0.5013 
     48 O          30.0999   32.5772    4.4348 O.2       7 UNK        -0.5193 
     49 N          29.6677   30.8996    5.9113 N.am      8 UNK        -0.4253 
     50 CA         30.4414   31.3296    7.0816 C.3       8 UNK         0.0242 
     51 CB         29.6934   32.4631    7.8196 C.3       8 UNK        -0.2000 
     52 C          31.8998   31.6763    6.7257 C.2       8 UNK         0.4948 
     53 O          32.7005   30.7675    6.4974 O.2       8 UNK        -0.5275 
     54 N          32.2033   32.9800    6.6446 N.am      9 UNK        -0.4246 
     55 CA         33.5033   33.5522    6.2840 C.3       9 UNK         0.0261 
     56 CB         33.4255   35.0833    6.3975 C.3       9 UNK        -0.1959 
     57 C          34.0292   33.1432    4.8954 C.2       9 UNK         0.5033 
     58 O          35.2361   33.2442    4.6708 O.2       9 UNK        -0.5390 
     59 N          33.1510   32.6554    4.0045 N.am      10 UNK        -0.4215 
     60 CA         33.5059   32.0907    2.6968 C.3       10 UNK         0.0240 
     61 CB         32.2253   31.6896    1.9507 C.3       10 UNK        -0.1982 
     62 C          34.4825   30.8986    2.7625 C.2       10 UNK         0.4970 
     63 O          35.2371   30.6987    1.8097 O.2       10 UNK        -0.4916 
     64 N          34.4785   30.1553    3.8782 N.am      11 UNK        -0.4279 
     65 CA         35.4612   29.1002    4.1733 C.3       11 UNK         0.1003 
     66 C          36.8275   29.6303    4.7028 C.2       11 UNK         0.5709 
     67 N          37.0164   30.9257    4.9287 N.am      11 UNK        -0.7358 
     68 O          37.7516   28.8444    4.8995 O.2       11 UNK        -0.4999 
     69 C69        34.8733   28.0113    5.1088 C.3       12 UNK        -0.0954 
     70 S70        33.4788   27.1266    4.3408 S.3       12 UNK        -0.2268 
     71 C71        34.3465   25.7200    3.5861 C.3       12 UNK         0.0203 
     72 H72        26.4864   26.8010    2.9676 H         1 UNK         0.0888 
     73 H73        24.9036   26.1912    2.4782 H         1 UNK         0.0888 
     74 H74        25.6655   25.5948    3.9545 H         1 UNK         0.0888 
     75 H75        25.9899   23.4159    3.4767 H         1 UNK         0.3017 
     76 H76        26.7749   21.5402    2.6618 H         1 UNK         0.0873 
     77 H77        28.9694   23.2726    1.4118 H         1 UNK         0.0745 
     78 H78        28.9715   21.5194    1.3720 H         1 UNK         0.0745 
     79 H79        31.5819   21.5473    4.0941 H         1 UNK         0.0705 
     80 H80        31.0825   20.9957    2.5194 H         1 UNK         0.0705 
     81 H81        32.7332   23.6755    4.3905 H         1 UNK         0.1334 
     82 H82        33.9054   25.8680    0.8943 H         1 UNK         0.1417 
     83 H83        31.1939   22.5661    0.5458 H         1 UNK         0.1562 
     84 H84        31.9089   23.6428   -1.4299 H         1 UNK         0.0748 
     85 H85        33.4955   24.3615   -1.3445 H         1 UNK         0.0748 
     86 H86        29.9234   25.1171   -0.1920 H         1 UNK         0.0940 
     87 H87        29.4686   25.6015   -1.8026 H         1 UNK         0.0940 
     88 H88        29.8425   28.0479   -1.0771 H         1 UNK         0.0703 
     89 H89        27.5777   26.4326   -0.1149 H         1 UNK         0.3081 
     90 H90        25.6180   28.0555    0.8224 H         1 UNK         0.0719 
     91 H91        25.3037   30.3740   -0.0404 H         1 UNK         0.0809 
     92 H92        25.1395   29.7640   -1.6827 H         1 UNK         0.0809 
     93 H93        23.9260   29.3750   -0.4642 H         1 UNK         0.0809 
     94 H94        25.9083   26.8590   -1.8152 H         1 UNK         0.2990 
     95 H95        23.1278   24.6467   -1.3436 H         1 UNK         0.0690 
     96 H96        23.0567   26.4407   -3.1787 H         1 UNK         0.0788 
     97 H97        23.4311   24.8380   -3.7714 H         1 UNK         0.0788 
     98 H98        24.7160   26.0264   -3.5901 H         1 UNK         0.0788 
     99 H99        25.8758   24.5283   -0.9045 H         1 UNK         0.2993 
    100 H100       26.2895   21.1847   -1.9402 H         1 UNK         0.0949 
    101 H101       28.5432   21.9609   -2.6494 H         1 UNK         0.0767 
    102 H102       27.3417   22.4212   -3.8434 H         1 UNK         0.0767 
    103 H103       27.9728   23.6284   -2.7324 H         1 UNK         0.0767 
    104 H104       27.8957   22.9404   -0.3522 H         1 UNK         0.3013 
    105 H105       28.7745   26.2610    1.8374 H         1 UNK         0.3121 
    106 H106       30.8781   27.4090    3.5084 H         1 UNK         0.0774 
    107 H107       28.5235   25.6017    4.2455 H         1 UNK         0.0815 
    108 H108       30.1632   25.0796    3.8567 H         1 UNK         0.0815 
    109 H109       29.8673   26.0339    5.2935 H         1 UNK         0.0815 
    110 H110       29.7193   29.5195    2.4626 H         1 UNK         0.2987 
    111 H111       27.6438   30.6715    4.2010 H         1 UNK         0.0949 
    112 H112       27.9509   32.6587    2.7145 H         1 UNK         0.0806 
    113 H113       29.2632   31.8409    1.8778 H         1 UNK         0.0806 
    114 H114       27.6272   31.1987    1.7944 H         1 UNK         0.0806 
    115 H115       29.2049   29.9994    5.9970 H         1 UNK         0.3010 
    116 H116       30.4902   30.4728    7.7556 H         1 UNK         0.0829 
    117 H117       29.5100   33.3271    7.1796 H         1 UNK         0.0813 
    118 H118       28.7249   32.1166    8.1806 H         1 UNK         0.0813 
    119 H119       30.2525   32.8044    8.6922 H         1 UNK         0.0813 
    120 H120       31.4560   33.6395    6.8067 H         1 UNK         0.3038 
    121 H121       34.2284   33.1906    7.0160 H         1 UNK         0.0769 
    122 H122       32.6913   35.5017    5.7077 H         1 UNK         0.0811 
    123 H123       34.3880   35.5421    6.1661 H         1 UNK         0.0811 
    124 H124       33.1562   35.3949    7.4069 H         1 UNK         0.0811 
    125 H125       32.1682   32.6308    4.2609 H         1 UNK         0.3204 
    126 H126       33.9996   32.8807    2.1273 H         1 UNK         0.0748 
    127 H127       32.4541   31.2918    0.9609 H         1 UNK         0.0771 
    128 H128       31.6740   30.9184    2.4893 H         1 UNK         0.0771 
    129 H129       31.5651   32.5456    1.8118 H         1 UNK         0.0771 
    130 H130       33.8361   30.3847    4.6272 H         1 UNK         0.2980 
    131 H131       35.7054   28.6053    3.2315 H         1 UNK         0.0545 
    132 H132       36.2869   31.6107    4.7590 H         1 UNK         0.3459 
    133 H133       37.9150   31.2334    5.2638 H         1 UNK         0.3459 
    134 H134       34.5251   28.4605    6.0406 H         1 UNK         0.0616 
    135 H135       35.6311   27.2779    5.3907 H         1 UNK         0.0616 
    136 H136       35.1719   26.0917    2.9769 H         1 UNK         0.0634 
    137 H137       34.7944   25.1103    4.3723 H         1 UNK         0.0634 
@<TRIPOS>BOND
     1    1    2 1    
     2    1   72 1    
     3    1   73 1    
     4    1   74 1    
     5    2    3 2    
     6    2    4 am   BACKBONE|DICT|INTERRES
     7    4    5 1    
     8    4   75 1    
     9    5    6 1    
    10    5   35 1    
    11    5   76 1    
    12    6    7 1    
    13    6   77 1    
    14    6   78 1    
    15    7    8 1    
    16    8    9 1    
    17    8   79 1    
    18    8   80 1    
    19    9   10 ar   
    20    9   14 ar   
    21   10   11 ar   
    22   10   81 1    
    23   11   12 ar   
    24   11   71 1    
    25   12   13 ar   
    26   12   82 1    
    27   13   14 ar   
    28   13   15 1    
    29   14   83 1    
    30   15   16 1    
    31   15   84 1    
    32   15   85 1    
    33   16   17 1    
    34   17   18 1    
    35   17   86 1    
    36   17   87 1    
    37   18   19 1    
    38   18   37 1    
    39   18   88 1    
    40   19   20 am   BACKBONE|DICT|INTERRES
    41   19   89 1    
    42   20   21 2    
    43   20   22 1    
    44   22   23 1    
    45   22   24 1    
    46   22   90 1    
    47   23   91 1    
    48   23   92 1    
    49   23   93 1    
    50   24   25 am   BACKBONE|DICT|INTERRES
    51   24   94 1    
    52   25   26 2    
    53   25   27 1    
    54   27   28 1    
    55   27   29 1    
    56   27   95 1    
    57   28   96 1    
    58   28   97 1    
    59   28   98 1    
    60   29   30 am   BACKBONE|DICT|INTERRES
    61   29   99 1    
    62   30   31 2    
    63   30   32 1    
    64   32   33 1    
    65   32   34 1    
    66   32  100 1    
    67   33  101 1    
    68   33  102 1    
    69   33  103 1    
    70   34   35 am   BACKBONE|DICT|INTERRES
    71   34  104 1    
    72   35   36 2    
    73   37   38 2    
    74   37   39 am   BACKBONE|DICT|INTERRES
    75   39   40 1    
    76   39  105 1    
    77   40   41 1    
    78   40   42 1    
    79   40  106 1    
    80   41  107 1    
    81   41  108 1    
    82   41  109 1    
    83   42   43 2    
    84   42   44 am   BACKBONE|DICT|INTERRES
    85   44   45 1    
    86   44  110 1    
    87   45   46 1    
    88   45   47 1    
    89   45  111 1    
    90   46  112 1    
    91   46  113 1    
    92   46  114 1    
    93   47   48 2    
    94   47   49 am   BACKBONE|DICT|INTERRES
    95   49   50 1    
    96   49  115 1    
    97   50   51 1    
    98   50   52 1    
    99   50  116 1    
   100   51  117 1    
   101   51  118 1    
   102   51  119 1    
   103   52   53 2    
   104   52   54 am   BACKBONE|DICT|INTERRES
   105   54   55 1    
   106   54  120 1    
   107   55   56 1    
   108   55   57 1    
   109   55  121 1    
   110   56  122 1    
   111   56  123 1    
   112   56  124 1    
   113   57   58 2    
   114   57   59 am   BACKBONE|DICT|INTERRES
   115   59   60 1    
   116   59  125 1    
   117   60   61 1    
   118   60   62 1    
   119   60  126 1    
   120   61  127 1    
   121   61  128 1    
   122   61  129 1    
   123   62   63 2    
   124   62   64 am   BACKBONE|DICT|INTERRES
   125   64   65 1    
   126   64  130 1    
   127   65   66 1    
   128   65   69 1    
   129   65  131 1    
   130   66   67 am   BACKBONE|DICT|INTERRES
   131   66   68 2    
   132   67  132 1    
   133   67  133 1    
   134   69   70 1    
   135   69  134 1    
   136   69  135 1    
   137   70   71 1    
   138   71  136 1    
   139   71  137 1    
@<TRIPOS>SUBSTRUCTURE
     1 UNK         1 GROUP             0       ****    0 ROOT    
