@<TRIPOS>MOLECULE
3R136
137   139    1
SMALL
USER_CHARGES


@<TRIPOS>ATOM
      1 CA         30.3680   21.5061   -3.3965 C.3       0 UNK        -0.1979 
      2 C          29.5734   22.0498   -2.2184 C.2       0 UNK         0.4864 
      3 O          29.0030   21.2668   -1.4580 O.2       0 UNK        -0.5359 
      4 N          29.5289   23.3832   -2.0744 N.am      1 UNK        -0.4318 
      5 CA         28.8583   24.1312   -0.9975 C.3       1 UNK         0.0824 
      6 C6         29.4695   23.8725    0.4075 C.3       12 UNK        -0.0944 
      7 S7         31.2279   24.3406    0.5245 S.3       12 UNK        -0.2672 
      8 C8         31.8127   23.1975    1.8164 C.3       12 UNK         0.0333 
      9 C9         31.5372   23.7303    3.2169 C.ar      12 UNK        -0.0807 
     10 C10        32.5564   24.3636    3.9362 C.ar      12 UNK        -0.0894 
     11 C11        32.3295   24.8301    5.2350 C.ar      12 UNK        -0.0804 
     12 C12        31.0613   24.6813    5.8031 C.ar      12 UNK        -0.0824 
     13 C13        30.0263   24.0683    5.0887 C.ar      12 UNK        -0.0762 
     14 C14        30.2772   23.5729    3.8047 C.ar      12 UNK        -0.0782 
     15 C15        28.6388   23.9497    5.7115 C.3       12 UNK         0.0230 
     16 S16        27.3733   24.9516    4.8526 S.3       12 UNK        -0.2608 
     17 C17        28.2061   26.5637    4.6517 C.3       12 UNK        -0.0989 
     18 CA         28.6345   26.7601    3.1762 C.3       5 UNK         0.0716 
     19 N          27.5042   27.1620    2.3280 N.am      5 UNK        -0.4135 
     20 C          27.5485   27.4147    1.0117 C.2       4 UNK         0.5031 
     21 O          28.5516   27.2678    0.3098 O.2       4 UNK        -0.5229 
     22 CA         26.2374   27.8849    0.3723 C.3       4 UNK         0.0329 
     23 CB         26.4432   28.4794   -1.0369 C.3       4 UNK        -0.2001 
     24 N          25.3029   26.7640    0.3050 N.am      4 UNK        -0.4303 
     25 C          23.9711   26.8857    0.2162 C.2       3 UNK         0.5044 
     26 O          23.3841   27.9673    0.2887 O.2       3 UNK        -0.5152 
     27 CA         23.1563   25.5894    0.0067 C.3       3 UNK         0.0319 
     28 CB         21.7867   25.8449   -0.6588 C.3       3 UNK        -0.2001 
     29 N          23.8954   24.5425   -0.7116 N.am      3 UNK        -0.4354 
     30 C          24.4210   24.6106   -1.9450 C.2       2 UNK         0.4964 
     31 O          24.2888   25.5672   -2.7106 O.2       2 UNK        -0.5047 
     32 CA         25.2950   23.4148   -2.3667 C.3       2 UNK         0.0288 
     33 CB         25.0611   23.0319   -3.8391 C.3       2 UNK        -0.2113 
     34 N          26.7252   23.6695   -2.1617 N.am      2 UNK        -0.4145 
     35 C          27.3191   23.9606   -0.9926 C.2       1 UNK         0.5006 
     36 O          26.6968   24.1005    0.0636 O.2       1 UNK        -0.5103 
     37 C          29.8094   27.7431    3.0470 C.2       5 UNK         0.5055 
     38 O          29.7124   28.8635    3.5496 O.2       5 UNK        -0.5220 
     39 N          30.8530   27.3119    2.3196 N.am      6 UNK        -0.4450 
     40 CA         32.0418   28.0688    1.9151 C.3       6 UNK         0.0367 
     41 CB         33.0389   28.1617    3.0798 C.3       6 UNK        -0.1929 
     42 C          31.6970   29.4396    1.3050 C.2       6 UNK         0.5070 
     43 O          32.2437   30.4613    1.7305 O.2       6 UNK        -0.5237 
     44 N          30.7378   29.4287    0.3662 N.am      7 UNK        -0.4739 
     45 CA         30.1223   30.5599   -0.3409 C.3       7 UNK         0.0276 
     46 CB         31.1590   31.3508   -1.1636 C.3       7 UNK        -0.1927 
     47 C          29.2999   31.4865    0.5721 C.2       7 UNK         0.5013 
     48 O          28.1142   31.6955    0.3152 O.2       7 UNK        -0.5193 
     49 N          29.9416   32.0129    1.6173 N.am      8 UNK        -0.4253 
     50 CA         29.3751   32.8968    2.6298 C.3       8 UNK         0.0242 
     51 CB         29.3375   34.3474    2.1060 C.3       8 UNK        -0.2000 
     52 C          30.1655   32.7418    3.9383 C.2       8 UNK         0.4948 
     53 O          30.6100   33.7395    4.5085 O.2       8 UNK        -0.5275 
     54 N          30.3416   31.4869    4.3793 N.am      9 UNK        -0.4246 
     55 CA         31.0330   31.0616    5.6012 C.3       9 UNK         0.0261 
     56 CB         30.2806   31.5469    6.8591 C.3       9 UNK        -0.1959 
     57 C          32.5339   31.4058    5.6291 C.2       9 UNK         0.5033 
     58 O          33.0887   31.6117    6.7106 O.2       9 UNK        -0.5390 
     59 N          33.1974   31.4054    4.4628 N.am      10 UNK        -0.4215 
     60 CA         34.6435   31.6218    4.3221 C.3       10 UNK         0.0240 
     61 CB         34.9301   32.1819    2.9161 C.3       10 UNK        -0.1982 
     62 C          35.4600   30.3466    4.6315 C.2       10 UNK         0.4970 
     63 O          36.3866   30.0127    3.8907 O.2       10 UNK        -0.4916 
     64 N          35.0773   29.6360    5.6979 N.am      11 UNK        -0.4279 
     65 CA         35.6839   28.3830    6.1612 C.3       11 UNK         0.1003 
     66 C          37.1041   28.5973    6.7509 C.2       11 UNK         0.5709 
     67 N          37.9877   27.6185    6.6091 N.am      11 UNK        -0.7358 
     68 O          37.3999   29.6198    7.3676 O.2       11 UNK        -0.4999 
     69 C69        34.7635   27.6582    7.1787 C.3       12 UNK        -0.0954 
     70 S70        33.1497   27.1955    6.4612 S.3       12 UNK        -0.2268 
     71 C71        33.4644   25.4528    6.0393 C.3       12 UNK         0.0203 
     72 H72        29.7198   20.9217   -4.0490 H         1 UNK         0.0888 
     73 H73        30.8172   22.3027   -3.9895 H         1 UNK         0.0888 
     74 H74        31.1679   20.8574   -3.0406 H         1 UNK         0.0888 
     75 H75        30.0290   23.9580   -2.7388 H         1 UNK         0.3017 
     76 H76        29.0199   25.1841   -1.2316 H         1 UNK         0.0873 
     77 H77        28.9346   24.4419    1.1629 H         1 UNK         0.0745 
     78 H78        29.3465   22.8246    0.6840 H         1 UNK         0.0745 
     79 H79        32.8848   23.0478    1.6803 H         1 UNK         0.0705 
     80 H80        31.3580   22.2142    1.6885 H         1 UNK         0.0705 
     81 H81        33.5347   24.4765    3.4892 H         1 UNK         0.1334 
     82 H82        30.8830   25.0503    6.8041 H         1 UNK         0.1417 
     83 H83        29.4827   23.0845    3.2573 H         1 UNK         0.1562 
     84 H84        28.6622   24.2480    6.7609 H         1 UNK         0.0748 
     85 H85        28.3283   22.9040    5.7008 H         1 UNK         0.0748 
     86 H86        29.0584   26.6150    5.3315 H         1 UNK         0.0940 
     87 H87        27.5345   27.3619    4.9730 H         1 UNK         0.0940 
     88 H88        28.9899   25.8025    2.8056 H         1 UNK         0.0703 
     89 H89        26.6254   27.2901    2.8074 H         1 UNK         0.3081 
     90 H90        25.8255   28.6650    1.0164 H         1 UNK         0.0719 
     91 H91        26.8292   27.7360   -1.7355 H         1 UNK         0.0809 
     92 H92        25.5108   28.8679   -1.4465 H         1 UNK         0.0809 
     93 H93        27.1506   29.3081   -1.0105 H         1 UNK         0.0809 
     94 H94        25.7173   25.8357    0.2692 H         1 UNK         0.2990 
     95 H95        22.9668   25.1938    1.0056 H         1 UNK         0.0690 
     96 H96        21.2269   24.9180   -0.7838 H         1 UNK         0.0788 
     97 H97        21.8940   26.3075   -1.6404 H         1 UNK         0.0788 
     98 H98        21.1734   26.5116   -0.0512 H         1 UNK         0.0788 
     99 H99        24.1271   23.7296   -0.1560 H         1 UNK         0.2993 
    100 H100       25.0209   22.5539   -1.7530 H         1 UNK         0.0949 
    101 H101       25.3756   23.8246   -4.5196 H         1 UNK         0.0767 
    102 H102       25.6059   22.1257   -4.1051 H         1 UNK         0.0767 
    103 H103       24.0039   22.8404   -4.0286 H         1 UNK         0.0767 
    104 H104       27.3130   23.5946   -2.9786 H         1 UNK         0.3013 
    105 H105       30.7909   26.3834    1.9204 H         1 UNK         0.3121 
    106 H106       32.5192   27.4949    1.1194 H         1 UNK         0.0774 
    107 H107       33.3391   27.1721    3.4207 H         1 UNK         0.0815 
    108 H108       33.9461   28.6833    2.7751 H         1 UNK         0.0815 
    109 H109       32.6130   28.6943    3.9287 H         1 UNK         0.0815 
    110 H110       30.2875   28.5359    0.1887 H         1 UNK         0.2987 
    111 H111       29.4211   30.1155   -1.0486 H         1 UNK         0.0949 
    112 H112       30.6745   32.1370   -1.7440 H         1 UNK         0.0806 
    113 H113       31.9086   31.8309   -0.5339 H         1 UNK         0.0806 
    114 H114       31.6807   30.7033   -1.8682 H         1 UNK         0.0806 
    115 H115       30.9049   31.7127    1.7589 H         1 UNK         0.3010 
    116 H116       28.3522   32.5796    2.8439 H         1 UNK         0.0829 
    117 H117       28.7296   34.4303    1.2051 H         1 UNK         0.0813 
    118 H118       28.9063   35.0208    2.8478 H         1 UNK         0.0813 
    119 H119       30.3374   34.7140    1.8708 H         1 UNK         0.0813 
    120 H120       29.9622   30.7129    3.8356 H         1 UNK         0.3038 
    121 H121       30.9890   29.9716    5.6046 H         1 UNK         0.0769 
    122 H122       30.7020   31.1045    7.7627 H         1 UNK         0.0811 
    123 H123       29.2282   31.2655    6.8246 H         1 UNK         0.0811 
    124 H124       30.3364   32.6299    6.9720 H         1 UNK         0.0811 
    125 H125       32.6990   31.1654    3.6111 H         1 UNK         0.3204 
    126 H126       34.9554   32.3788    5.0446 H         1 UNK         0.0748 
    127 H127       35.9806   32.4555    2.8099 H         1 UNK         0.0771 
    128 H128       34.7031   31.4526    2.1376 H         1 UNK         0.0771 
    129 H129       34.3416   33.0779    2.7175 H         1 UNK         0.0771 
    130 H130       34.3444   30.0208    6.2810 H         1 UNK         0.2980 
    131 H131       35.7885   27.7381    5.2862 H         1 UNK         0.0545 
    132 H132       38.9106   27.7330    6.9982 H         1 UNK         0.3459 
    133 H133       37.7546   26.7709    6.1159 H         1 UNK         0.3459 
    134 H134       34.5787   28.2963    8.0448 H         1 UNK         0.0616 
    135 H135       35.2460   26.7587    7.5660 H         1 UNK         0.0616 
    136 H136       34.4026   25.3891    5.4859 H         1 UNK         0.0634 
    137 H137       33.6066   24.8822    6.9581 H         1 UNK         0.0634 
@<TRIPOS>BOND
     1    1    2 1    
     2    1   72 1    
     3    1   73 1    
     4    1   74 1    
     5    2    3 2    
     6    2    4 am   BACKBONE|DICT|INTERRES
     7    4    5 1    
     8    4   75 1    
     9    5    6 1    
    10    5   35 1    
    11    5   76 1    
    12    6    7 1    
    13    6   77 1    
    14    6   78 1    
    15    7    8 1    
    16    8    9 1    
    17    8   79 1    
    18    8   80 1    
    19    9   10 ar   
    20    9   14 ar   
    21   10   11 ar   
    22   10   81 1    
    23   11   12 ar   
    24   11   71 1    
    25   12   13 ar   
    26   12   82 1    
    27   13   14 ar   
    28   13   15 1    
    29   14   83 1    
    30   15   16 1    
    31   15   84 1    
    32   15   85 1    
    33   16   17 1    
    34   17   18 1    
    35   17   86 1    
    36   17   87 1    
    37   18   19 1    
    38   18   37 1    
    39   18   88 1    
    40   19   20 am   BACKBONE|DICT|INTERRES
    41   19   89 1    
    42   20   21 2    
    43   20   22 1    
    44   22   23 1    
    45   22   24 1    
    46   22   90 1    
    47   23   91 1    
    48   23   92 1    
    49   23   93 1    
    50   24   25 am   BACKBONE|DICT|INTERRES
    51   24   94 1    
    52   25   26 2    
    53   25   27 1    
    54   27   28 1    
    55   27   29 1    
    56   27   95 1    
    57   28   96 1    
    58   28   97 1    
    59   28   98 1    
    60   29   30 am   BACKBONE|DICT|INTERRES
    61   29   99 1    
    62   30   31 2    
    63   30   32 1    
    64   32   33 1    
    65   32   34 1    
    66   32  100 1    
    67   33  101 1    
    68   33  102 1    
    69   33  103 1    
    70   34   35 am   BACKBONE|DICT|INTERRES
    71   34  104 1    
    72   35   36 2    
    73   37   38 2    
    74   37   39 am   BACKBONE|DICT|INTERRES
    75   39   40 1    
    76   39  105 1    
    77   40   41 1    
    78   40   42 1    
    79   40  106 1    
    80   41  107 1    
    81   41  108 1    
    82   41  109 1    
    83   42   43 2    
    84   42   44 am   BACKBONE|DICT|INTERRES
    85   44   45 1    
    86   44  110 1    
    87   45   46 1    
    88   45   47 1    
    89   45  111 1    
    90   46  112 1    
    91   46  113 1    
    92   46  114 1    
    93   47   48 2    
    94   47   49 am   BACKBONE|DICT|INTERRES
    95   49   50 1    
    96   49  115 1    
    97   50   51 1    
    98   50   52 1    
    99   50  116 1    
   100   51  117 1    
   101   51  118 1    
   102   51  119 1    
   103   52   53 2    
   104   52   54 am   BACKBONE|DICT|INTERRES
   105   54   55 1    
   106   54  120 1    
   107   55   56 1    
   108   55   57 1    
   109   55  121 1    
   110   56  122 1    
   111   56  123 1    
   112   56  124 1    
   113   57   58 2    
   114   57   59 am   BACKBONE|DICT|INTERRES
   115   59   60 1    
   116   59  125 1    
   117   60   61 1    
   118   60   62 1    
   119   60  126 1    
   120   61  127 1    
   121   61  128 1    
   122   61  129 1    
   123   62   63 2    
   124   62   64 am   BACKBONE|DICT|INTERRES
   125   64   65 1    
   126   64  130 1    
   127   65   66 1    
   128   65   69 1    
   129   65  131 1    
   130   66   67 am   BACKBONE|DICT|INTERRES
   131   66   68 2    
   132   67  132 1    
   133   67  133 1    
   134   69   70 1    
   135   69  134 1    
   136   69  135 1    
   137   70   71 1    
   138   71  136 1    
   139   71  137 1    
@<TRIPOS>SUBSTRUCTURE
     1 UNK         1 GROUP             0       ****    0 ROOT    
