@<TRIPOS>MOLECULE
3R136
137   139    1
SMALL
USER_CHARGES


@<TRIPOS>ATOM
      1 CA         31.2653   19.0656    3.0907 C.3       0 UNK        -0.1979 
      2 C          30.1461   19.2916    2.0851 C.2       0 UNK         0.4864 
      3 O          29.4916   18.3331    1.6728 O.2       0 UNK        -0.5359 
      4 N          29.9222   20.5520    1.6883 N.am      1 UNK        -0.4318 
      5 CA         28.8993   20.9550    0.7120 C.3       1 UNK         0.0824 
      6 C6         29.1458   22.3847    0.1639 C.3       12 UNK        -0.0944 
      7 S7         30.7476   22.5221   -0.6949 S.3       12 UNK        -0.2672 
      8 C8         31.6934   23.6203    0.4194 C.3       12 UNK         0.0333 
      9 C9         31.6219   25.1184    0.1088 C.ar      12 UNK        -0.0807 
     10 C10        32.0884   26.0150    1.0774 C.ar      12 UNK        -0.0894 
     11 C11        32.1478   27.3865    0.8157 C.ar      12 UNK        -0.0804 
     12 C12        31.7310   27.8669   -0.4272 C.ar      12 UNK        -0.0824 
     13 C13        31.2443   26.9923   -1.4019 C.ar      12 UNK        -0.0762 
     14 C14        31.1895   25.6213   -1.1280 C.ar      12 UNK        -0.0782 
     15 C15        30.8449   27.5200   -2.7749 C.3       12 UNK         0.0230 
     16 S16        29.0537   27.8192   -2.9249 S.3       12 UNK        -0.2608 
     17 C17        28.8153   29.2881   -1.8630 C.3       12 UNK        -0.0989 
     18 CA         27.7960   29.0541   -0.7181 C.3       5 UNK         0.0716 
     19 N          28.0601   27.8072    0.0099 N.am      5 UNK        -0.4135 
     20 C          27.1789   27.1889    0.8037 C.2       4 UNK         0.5031 
     21 O          26.1222   27.6961    1.1882 O.2       4 UNK        -0.5229 
     22 CA         27.5500   25.7581    1.2304 C.3       4 UNK         0.0329 
     23 CB         28.5099   25.7668    2.4278 C.3       4 UNK        -0.2001 
     24 N          26.3685   24.9675    1.5771 N.am      4 UNK        -0.4303 
     25 C          25.4509   24.5322    0.7038 C.2       3 UNK         0.5044 
     26 O          25.5318   24.6979   -0.5150 O.2       3 UNK        -0.5152 
     27 CA         24.2834   23.7258    1.3021 C.3       3 UNK         0.0319 
     28 CB         23.1943   23.3916    0.2660 C.3       3 UNK        -0.2001 
     29 N          24.8036   22.4798    1.8599 N.am      3 UNK        -0.4354 
     30 C          25.2981   22.3270    3.0931 C.2       2 UNK         0.4964 
     31 O          25.2401   23.1939    3.9654 O.2       2 UNK        -0.5047 
     32 CA         26.0598   21.0206    3.3714 C.3       2 UNK         0.0288 
     33 CB         25.1741   19.7703    3.1890 C.3       2 UNK        -0.2113 
     34 N          27.3077   20.9386    2.5971 N.am      2 UNK        -0.4145 
     35 C          27.4628   20.8450    1.2648 C.2       1 UNK         0.5006 
     36 O          26.5295   20.7079    0.4712 O.2       1 UNK        -0.5103 
     37 C          27.7056   30.3100    0.1761 C.2       5 UNK         0.5055 
     38 O          27.1479   31.3125   -0.2727 O.2       5 UNK        -0.5220 
     39 N          28.2802   30.2531    1.3896 N.am      6 UNK        -0.4450 
     40 CA         28.4405   31.3606    2.3478 C.3       6 UNK         0.0367 
     41 CB         27.0745   31.8458    2.8767 C.3       6 UNK        -0.1929 
     42 C          29.3183   32.5054    1.7953 C.2       6 UNK         0.5070 
     43 O          29.0904   33.6743    2.1100 O.2       6 UNK        -0.5237 
     44 N          30.3015   32.1409    0.9618 N.am      7 UNK        -0.4739 
     45 CA         31.1831   33.0576    0.2372 C.3       7 UNK         0.0276 
     46 CB         31.5648   32.4018   -1.1014 C.3       7 UNK        -0.1927 
     47 C          32.4497   33.4454    1.0205 C.2       7 UNK         0.5013 
     48 O          33.1485   34.3678    0.5975 O.2       7 UNK        -0.5193 
     49 N          32.7451   32.7403    2.1182 N.am      8 UNK        -0.4253 
     50 CA         33.9310   32.9309    2.9489 C.3       8 UNK         0.0242 
     51 CB         35.0802   32.0646    2.3998 C.3       8 UNK        -0.2000 
     52 C          33.6024   32.5438    4.3926 C.2       8 UNK         0.4948 
     53 O          32.6088   31.8535    4.6305 O.2       8 UNK        -0.5275 
     54 N          34.4742   32.9361    5.3316 N.am      9 UNK        -0.4246 
     55 CA         34.3615   32.6501    6.7706 C.3       9 UNK         0.0261 
     56 CB         35.5015   33.3638    7.5158 C.3       9 UNK        -0.1959 
     57 C          34.3362   31.1511    7.1358 C.2       9 UNK         0.5033 
     58 O          33.8718   30.8035    8.2221 O.2       9 UNK        -0.5390 
     59 N          34.8087   30.2935    6.2208 N.am      10 UNK        -0.4215 
     60 CA         34.7244   28.8345    6.2980 C.3       10 UNK         0.0240 
     61 CB         35.6375   28.2297    5.2179 C.3       10 UNK        -0.1982 
     62 C          33.2924   28.2796    6.1550 C.2       10 UNK         0.4970 
     63 O          33.0697   27.1312    6.5412 O.2       10 UNK        -0.4916 
     64 N          32.3638   29.0708    5.6016 N.am      11 UNK        -0.4279 
     65 CA         30.9677   28.6832    5.3507 C.3       11 UNK         0.1003 
     66 C          29.9233   29.7551    5.7672 C.2       11 UNK         0.5709 
     67 N          30.2704   31.0312    5.8675 N.am      11 UNK        -0.7358 
     68 O          28.7716   29.4148    6.0256 O.2       11 UNK        -0.4999 
     69 C69        30.7514   28.1867    3.8961 C.3       12 UNK        -0.0954 
     70 S70        31.3827   29.3313    2.6198 S.3       12 UNK        -0.2268 
     71 C71        32.7045   28.3531    1.8504 C.3       12 UNK         0.0203 
     72 H72        32.0136   18.3923    2.6732 H         1 UNK         0.0888 
     73 H73        31.7626   19.9958    3.3648 H         1 UNK         0.0888 
     74 H74        30.8682   18.6129    3.9988 H         1 UNK         0.0888 
     75 H75        30.5097   21.2930    2.0413 H         1 UNK         0.3017 
     76 H76        28.9578   20.2609   -0.1296 H         1 UNK         0.0873 
     77 H77        28.3698   22.6603   -0.5538 H         1 UNK         0.0745 
     78 H78        29.0889   23.1218    0.9654 H         1 UNK         0.0745 
     79 H79        31.3884   23.4404    1.4511 H         1 UNK         0.0705 
     80 H80        32.7411   23.3227    0.3599 H         1 UNK         0.0705 
     81 H81        32.4367   25.6400    2.0303 H         1 UNK         0.1334 
     82 H82        31.8085   28.9241   -0.6381 H         1 UNK         0.1417 
     83 H83        30.8433   24.9512   -1.9021 H         1 UNK         0.1562 
     84 H84        31.1408   26.8001   -3.5395 H         1 UNK         0.0748 
     85 H85        31.3869   28.4385   -3.0063 H         1 UNK         0.0748 
     86 H86        28.4732   30.1036   -2.5037 H         1 UNK         0.0940 
     87 H87        29.7755   29.6163   -1.4661 H         1 UNK         0.0940 
     88 H88        26.8129   28.9400   -1.1807 H         1 UNK         0.0703 
     89 H89        28.9041   27.3199   -0.2580 H         1 UNK         0.3081 
     90 H90        28.0468   25.2703    0.3887 H         1 UNK         0.0719 
     91 H91        28.0801   26.2872    3.2846 H         1 UNK         0.0809 
     92 H92        28.7656   24.7563    2.7460 H         1 UNK         0.0809 
     93 H93        29.4434   26.2639    2.1664 H         1 UNK         0.0809 
     94 H94        26.2065   24.7933    2.5603 H         1 UNK         0.2990 
     95 H95        23.8266   24.3279    2.0905 H         1 UNK         0.0690 
     96 H96        22.3661   22.8507    0.7240 H         1 UNK         0.0788 
     97 H97        23.5838   22.7793   -0.5485 H         1 UNK         0.0788 
     98 H98        22.7835   24.3009   -0.1748 H         1 UNK         0.0788 
     99 H99        25.0232   21.7469    1.1912 H         1 UNK         0.2993 
    100 H100       26.3590   21.0519    4.4206 H         1 UNK         0.0949 
    101 H101       25.7165   18.8633    3.4562 H         1 UNK         0.0767 
    102 H102       24.2948   19.8226    3.8324 H         1 UNK         0.0767 
    103 H103       24.8172   19.6533    2.1658 H         1 UNK         0.0767 
    104 H104       28.1512   21.0529    3.1414 H         1 UNK         0.3013 
    105 H105       28.7114   29.3797    1.6575 H         1 UNK         0.3121 
    106 H106       28.9837   30.9536    3.1998 H         1 UNK         0.0774 
    107 H107       27.2040   32.5584    3.6921 H         1 UNK         0.0815 
    108 H108       26.4907   32.3430    2.1018 H         1 UNK         0.0815 
    109 H109       26.4833   31.0162    3.2642 H         1 UNK         0.0815 
    110 H110       30.4362   31.1548    0.7942 H         1 UNK         0.2987 
    111 H111       30.6403   33.9809    0.0222 H         1 UNK         0.0949 
    112 H112       32.1267   31.4787   -0.9544 H         1 UNK         0.0806 
    113 H113       30.6810   32.1690   -1.6959 H         1 UNK         0.0806 
    114 H114       32.1871   33.0687   -1.6999 H         1 UNK         0.0806 
    115 H115       32.0953   32.0416    2.4571 H         1 UNK         0.3010 
    116 H116       34.2223   33.9836    2.9395 H         1 UNK         0.0829 
    117 H117       35.3201   32.3326    1.3706 H         1 UNK         0.0813 
    118 H118       35.9919   32.1940    2.9840 H         1 UNK         0.0813 
    119 H119       34.8266   31.0037    2.4160 H         1 UNK         0.0813 
    120 H120       35.2713   33.4887    5.0482 H         1 UNK         0.3038 
    121 H121       33.4139   33.0729    7.1108 H         1 UNK         0.0769 
    122 H122       36.4804   33.0040    7.1963 H         1 UNK         0.0811 
    123 H123       35.4294   33.1981    8.5919 H         1 UNK         0.0811 
    124 H124       35.4691   34.4416    7.3551 H         1 UNK         0.0811 
    125 H125       35.1840   30.6802    5.3679 H         1 UNK         0.3204 
    126 H126       35.0968   28.5260    7.2771 H         1 UNK         0.0748 
    127 H127       36.6726   28.5458    5.3494 H         1 UNK         0.0771 
    128 H128       35.6267   27.1396    5.2618 H         1 UNK         0.0771 
    129 H129       35.3218   28.5179    4.2142 H         1 UNK         0.0771 
    130 H130       32.6119   30.0082    5.3045 H         1 UNK         0.2980 
    131 H131       30.7332   27.8384    6.0011 H         1 UNK         0.0545 
    132 H132       29.5802   31.7021    6.1619 H         1 UNK         0.3459 
    133 H133       31.1789   31.3531    5.5422 H         1 UNK         0.3459 
    134 H134       29.6908   28.0223    3.7074 H         1 UNK         0.0616 
    135 H135       31.2281   27.2135    3.7743 H         1 UNK         0.0616 
    136 H136       33.4039   29.0351    1.3649 H         1 UNK         0.0634 
    137 H137       33.2742   27.8294    2.6196 H         1 UNK         0.0634 
@<TRIPOS>BOND
     1    1    2 1    
     2    1   72 1    
     3    1   73 1    
     4    1   74 1    
     5    2    3 2    
     6    2    4 am   BACKBONE|DICT|INTERRES
     7    4    5 1    
     8    4   75 1    
     9    5    6 1    
    10    5   35 1    
    11    5   76 1    
    12    6    7 1    
    13    6   77 1    
    14    6   78 1    
    15    7    8 1    
    16    8    9 1    
    17    8   79 1    
    18    8   80 1    
    19    9   10 ar   
    20    9   14 ar   
    21   10   11 ar   
    22   10   81 1    
    23   11   12 ar   
    24   11   71 1    
    25   12   13 ar   
    26   12   82 1    
    27   13   14 ar   
    28   13   15 1    
    29   14   83 1    
    30   15   16 1    
    31   15   84 1    
    32   15   85 1    
    33   16   17 1    
    34   17   18 1    
    35   17   86 1    
    36   17   87 1    
    37   18   19 1    
    38   18   37 1    
    39   18   88 1    
    40   19   20 am   BACKBONE|DICT|INTERRES
    41   19   89 1    
    42   20   21 2    
    43   20   22 1    
    44   22   23 1    
    45   22   24 1    
    46   22   90 1    
    47   23   91 1    
    48   23   92 1    
    49   23   93 1    
    50   24   25 am   BACKBONE|DICT|INTERRES
    51   24   94 1    
    52   25   26 2    
    53   25   27 1    
    54   27   28 1    
    55   27   29 1    
    56   27   95 1    
    57   28   96 1    
    58   28   97 1    
    59   28   98 1    
    60   29   30 am   BACKBONE|DICT|INTERRES
    61   29   99 1    
    62   30   31 2    
    63   30   32 1    
    64   32   33 1    
    65   32   34 1    
    66   32  100 1    
    67   33  101 1    
    68   33  102 1    
    69   33  103 1    
    70   34   35 am   BACKBONE|DICT|INTERRES
    71   34  104 1    
    72   35   36 2    
    73   37   38 2    
    74   37   39 am   BACKBONE|DICT|INTERRES
    75   39   40 1    
    76   39  105 1    
    77   40   41 1    
    78   40   42 1    
    79   40  106 1    
    80   41  107 1    
    81   41  108 1    
    82   41  109 1    
    83   42   43 2    
    84   42   44 am   BACKBONE|DICT|INTERRES
    85   44   45 1    
    86   44  110 1    
    87   45   46 1    
    88   45   47 1    
    89   45  111 1    
    90   46  112 1    
    91   46  113 1    
    92   46  114 1    
    93   47   48 2    
    94   47   49 am   BACKBONE|DICT|INTERRES
    95   49   50 1    
    96   49  115 1    
    97   50   51 1    
    98   50   52 1    
    99   50  116 1    
   100   51  117 1    
   101   51  118 1    
   102   51  119 1    
   103   52   53 2    
   104   52   54 am   BACKBONE|DICT|INTERRES
   105   54   55 1    
   106   54  120 1    
   107   55   56 1    
   108   55   57 1    
   109   55  121 1    
   110   56  122 1    
   111   56  123 1    
   112   56  124 1    
   113   57   58 2    
   114   57   59 am   BACKBONE|DICT|INTERRES
   115   59   60 1    
   116   59  125 1    
   117   60   61 1    
   118   60   62 1    
   119   60  126 1    
   120   61  127 1    
   121   61  128 1    
   122   61  129 1    
   123   62   63 2    
   124   62   64 am   BACKBONE|DICT|INTERRES
   125   64   65 1    
   126   64  130 1    
   127   65   66 1    
   128   65   69 1    
   129   65  131 1    
   130   66   67 am   BACKBONE|DICT|INTERRES
   131   66   68 2    
   132   67  132 1    
   133   67  133 1    
   134   69   70 1    
   135   69  134 1    
   136   69  135 1    
   137   70   71 1    
   138   71  136 1    
   139   71  137 1    
@<TRIPOS>SUBSTRUCTURE
     1 UNK         1 GROUP             0       ****    0 ROOT    
