@<TRIPOS>MOLECULE
3R136
137   139    1
SMALL
USER_CHARGES


@<TRIPOS>ATOM
      1 CA         28.9661   28.5970   -2.0846 C.3       0 UNK        -0.1979 
      2 C          28.9101   27.2792   -1.3277 C.2       0 UNK         0.4864 
      3 O          28.1443   27.1565   -0.3698 O.2       0 UNK        -0.5359 
      4 N          29.7248   26.2983   -1.7360 N.am      1 UNK        -0.4318 
      5 CA         29.7007   24.9340   -1.2107 C.3       1 UNK         0.0824 
      6 C6         31.0780   24.2431   -1.3478 C.3       12 UNK        -0.0944 
      7 S7         31.1289   22.6142   -0.5254 S.3       12 UNK        -0.2672 
      8 C8         32.3066   22.8913    0.8366 C.3       12 UNK         0.0333 
      9 C9         31.6953   23.6038    2.0386 C.ar      12 UNK        -0.0807 
     10 C10        32.3048   24.7521    2.5570 C.ar      12 UNK        -0.0894 
     11 C11        31.8276   25.3422    3.7325 C.ar      12 UNK        -0.0804 
     12 C12        30.7232   24.7844    4.3777 C.ar      12 UNK        -0.0824 
     13 C13        30.0750   23.6653    3.8499 C.ar      12 UNK        -0.0762 
     14 C14        30.5712   23.0730    2.6841 C.ar      12 UNK        -0.0782 
     15 C15        28.8593   23.0855    4.5627 C.3       12 UNK         0.0230 
     16 S16        27.2857   23.7380    3.9098 S.3       12 UNK        -0.2608 
     17 C17        27.4246   25.5242    4.2594 C.3       12 UNK        -0.0989 
     18 CA         27.6763   26.3271    2.9511 C.3       5 UNK         0.0716 
     19 N          26.4638   26.4394    2.1229 N.am      5 UNK        -0.4135 
     20 C          25.3649   27.1576    2.4089 C.2       4 UNK         0.5031 
     21 O          25.2058   27.8046    3.4447 O.2       4 UNK        -0.5229 
     22 CA         24.2493   27.1677    1.3504 C.3       4 UNK         0.0329 
     23 CB         24.6025   28.1284    0.2019 C.3       4 UNK        -0.2001 
     24 N          23.9544   25.8410    0.8063 N.am      4 UNK        -0.4303 
     25 C          23.3969   24.8290    1.4906 C.2       3 UNK         0.5044 
     26 O          23.0348   24.9129    2.6645 O.2       3 UNK        -0.5152 
     27 CA         23.1918   23.4982    0.7351 C.3       3 UNK         0.0319 
     28 CB         21.7337   23.3647    0.2662 C.3       3 UNK        -0.2001 
     29 N          24.0846   23.3422   -0.4191 N.am      3 UNK        -0.4354 
     30 C          25.4109   23.1818   -0.3229 C.2       2 UNK         0.4964 
     31 O          25.9953   23.0322    0.7522 O.2       2 UNK        -0.5047 
     32 CA         26.2407   23.2813   -1.6131 C.3       2 UNK         0.0288 
     33 CB         25.5425   24.1150   -2.7175 C.3       2 UNK        -0.2113 
     34 N          27.5042   23.8855   -1.2021 N.am      2 UNK        -0.4145 
     35 C          28.5726   24.1832   -1.9434 C.2       1 UNK         0.5006 
     36 O          28.6821   23.9363   -3.1471 O.2       1 UNK        -0.5103 
     37 C          28.3348   27.7099    3.1780 C.2       5 UNK         0.5055 
     38 O          28.7104   28.0516    4.3007 O.2       5 UNK        -0.5220 
     39 N          28.4285   28.4917    2.0940 N.am      6 UNK        -0.4450 
     40 CA         28.8166   29.9035    2.0986 C.3       6 UNK         0.0367 
     41 CB         27.7731   30.6898    1.2870 C.3       6 UNK        -0.1929 
     42 C          30.2273   30.1584    1.5414 C.2       6 UNK         0.5070 
     43 O          30.6868   31.3003    1.6105 O.2       6 UNK        -0.5237 
     44 N          30.8921   29.1252    1.0022 N.am      7 UNK        -0.4739 
     45 CA         32.2140   29.2055    0.3635 C.3       7 UNK         0.0276 
     46 CB         32.6389   27.8070   -0.1095 C.3       7 UNK        -0.1927 
     47 C          33.2996   29.7934    1.2792 C.2       7 UNK         0.5013 
     48 O          33.3283   29.4623    2.4634 O.2       7 UNK        -0.5193 
     49 N          34.1674   30.6477    0.7167 N.am      8 UNK        -0.4253 
     50 CA         35.2754   31.3375    1.3966 C.3       8 UNK         0.0242 
     51 CB         36.3980   30.3339    1.7409 C.3       8 UNK        -0.2000 
     52 C          34.8184   32.1622    2.6199 C.2       8 UNK         0.4948 
     53 O          35.4822   32.1365    3.6574 O.2       8 UNK        -0.5275 
     54 N          33.6742   32.8512    2.4724 N.am      9 UNK        -0.4246 
     55 CA         32.9429   33.5911    3.5097 C.3       9 UNK         0.0261 
     56 CB         33.7479   34.8159    3.9958 C.3       9 UNK        -0.1959 
     57 C          32.4979   32.6615    4.6549 C.2       9 UNK         0.5033 
     58 O          32.8577   32.8833    5.8134 O.2       9 UNK        -0.5390 
     59 N          31.7521   31.6100    4.2836 N.am      10 UNK        -0.4215 
     60 CA         31.2486   30.5249    5.1373 C.3       10 UNK         0.0240 
     61 CB         30.1044   31.0349    6.0375 C.3       10 UNK        -0.1982 
     62 C          32.3648   29.8080    5.9215 C.2       10 UNK         0.4970 
     63 O          32.2045   29.5303    7.1115 O.2       10 UNK        -0.4916 
     64 N          33.4801   29.5394    5.2301 N.am      11 UNK        -0.4279 
     65 CA         34.7148   28.9302    5.7452 C.3       11 UNK         0.1003 
     66 C          35.4366   29.7615    6.8534 C.2       11 UNK         0.5709 
     67 N          35.1256   31.0393    7.0431 N.am      11 UNK        -0.7358 
     68 O          36.3242   29.2533    7.5351 O.2       11 UNK        -0.4999 
     69 C69        34.5190   27.4300    6.1190 C.3       12 UNK        -0.0954 
     70 S70        34.2531   26.3497    4.6691 S.3       12 UNK        -0.2268 
     71 C71        32.4819   26.5876    4.3142 C.3       12 UNK         0.0203 
     72 H72        29.3651   29.3841   -1.4468 H         1 UNK         0.0888 
     73 H73        29.5940   28.5293   -2.9728 H         1 UNK         0.0888 
     74 H74        27.9647   28.8884   -2.4000 H         1 UNK         0.0888 
     75 H75        30.3017   26.4393   -2.5531 H         1 UNK         0.3017 
     76 H76        29.4688   24.9771   -0.1434 H         1 UNK         0.0873 
     77 H77        31.8523   24.8803   -0.9187 H         1 UNK         0.0745 
     78 H78        31.3470   24.1112   -2.3976 H         1 UNK         0.0745 
     79 H79        33.1777   23.4285    0.4581 H         1 UNK         0.0705 
     80 H80        32.6754   21.9205    1.1705 H         1 UNK         0.0705 
     81 H81        33.1760   25.1687    2.0703 H         1 UNK         0.1334 
     82 H82        30.3638   25.2304    5.2944 H         1 UNK         0.1417 
     83 H83        30.0932   22.1870    2.2880 H         1 UNK         0.1562 
     84 H84        28.9146   23.2854    5.6340 H         1 UNK         0.0748 
     85 H85        28.8568   21.9994    4.4597 H         1 UNK         0.0748 
     86 H86        28.2088   25.6791    4.9979 H         1 UNK         0.0940 
     87 H87        26.5101   25.8569    4.7518 H         1 UNK         0.0940 
     88 H88        28.4039   25.7748    2.3534 H         1 UNK         0.0703 
     89 H89        26.5042   25.9763    1.2276 H         1 UNK         0.3081 
     90 H90        23.3417   27.5380    1.8323 H         1 UNK         0.0719 
     91 H91        25.4760   27.7927   -0.3582 H         1 UNK         0.0809 
     92 H92        23.7739   28.2298   -0.4991 H         1 UNK         0.0809 
     93 H93        24.8253   29.1261    0.5828 H         1 UNK         0.0809 
     94 H94        24.1922   25.6831   -0.1609 H         1 UNK         0.2990 
     95 H95        23.3999   22.6888    1.4385 H         1 UNK         0.0690 
     96 H96        21.5545   22.3975   -0.2038 H         1 UNK         0.0788 
     97 H97        21.4657   24.1427   -0.4499 H         1 UNK         0.0788 
     98 H98        21.0445   23.4459    1.1081 H         1 UNK         0.0788 
     99 H99        23.6729   23.4538   -1.3349 H         1 UNK         0.2993 
    100 H100       26.4335   22.2699   -1.9753 H         1 UNK         0.0949 
    101 H101       26.1543   24.1899   -3.6157 H         1 UNK         0.0767 
    102 H102       24.6041   23.6580   -3.0330 H         1 UNK         0.0767 
    103 H103       25.3272   25.1308   -2.3833 H         1 UNK         0.0767 
    104 H104       27.5388   24.0540   -0.2037 H         1 UNK         0.3013 
    105 H105       28.1485   28.0963    1.1964 H         1 UNK         0.3121 
    106 H106       28.8033   30.2912    3.1191 H         1 UNK         0.0774 
    107 H107       28.0065   31.7554    1.2707 H         1 UNK         0.0815 
    108 H108       27.7231   30.3495    0.2523 H         1 UNK         0.0815 
    109 H109       26.7784   30.5859    1.7209 H         1 UNK         0.0815 
    110 H110       30.4610   28.2141    1.0422 H         1 UNK         0.2987 
    111 H111       32.1134   29.8529   -0.5101 H         1 UNK         0.0949 
    112 H112       33.6561   27.8147   -0.5041 H         1 UNK         0.0806 
    113 H113       32.6122   27.0829    0.7047 H         1 UNK         0.0806 
    114 H114       31.9958   27.4462   -0.9082 H         1 UNK         0.0806 
    115 H115       34.0604   30.8618   -0.2656 H         1 UNK         0.3010 
    116 H116       35.6819   32.0555    0.6826 H         1 UNK         0.0829 
    117 H117       36.7262   29.7869    0.8573 H         1 UNK         0.0813 
    118 H118       37.2716   30.8460    2.1462 H         1 UNK         0.0813 
    119 H119       36.0745   29.6049    2.4847 H         1 UNK         0.0813 
    120 H120       33.1990   32.7739    1.5833 H         1 UNK         0.3038 
    121 H121       32.0302   33.9633    3.0415 H         1 UNK         0.0769 
    122 H122       33.1609   35.4123    4.6953 H         1 UNK         0.0811 
    123 H123       34.0216   35.4660    3.1651 H         1 UNK         0.0811 
    124 H124       34.6642   34.5252    4.5105 H         1 UNK         0.0811 
    125 H125       31.5327   31.5201    3.2934 H         1 UNK         0.3204 
    126 H126       30.8337   29.7717    4.4676 H         1 UNK         0.0748 
    127 H127       29.6460   30.2120    6.5877 H         1 UNK         0.0771 
    128 H128       30.4594   31.7620    6.7687 H         1 UNK         0.0771 
    129 H129       29.3172   31.5057    5.4490 H         1 UNK         0.0771 
    130 H130       33.4874   29.7391    4.2308 H         1 UNK         0.2980 
    131 H131       35.4117   28.9640    4.9074 H         1 UNK         0.0545 
    132 H132       35.6117   31.5641    7.7517 H         1 UNK         0.3459 
    133 H133       34.4078   31.4875    6.4867 H         1 UNK         0.3459 
    134 H134       35.4088   27.0394    6.6147 H         1 UNK         0.0616 
    135 H135       33.7055   27.2998    6.8337 H         1 UNK         0.0616 
    136 H136       32.3590   27.4071    3.6081 H         1 UNK         0.0634 
    137 H137       31.9699   26.8908    5.2283 H         1 UNK         0.0634 
@<TRIPOS>BOND
     1    1    2 1    
     2    1   72 1    
     3    1   73 1    
     4    1   74 1    
     5    2    3 2    
     6    2    4 am   BACKBONE|DICT|INTERRES
     7    4    5 1    
     8    4   75 1    
     9    5    6 1    
    10    5   35 1    
    11    5   76 1    
    12    6    7 1    
    13    6   77 1    
    14    6   78 1    
    15    7    8 1    
    16    8    9 1    
    17    8   79 1    
    18    8   80 1    
    19    9   10 ar   
    20    9   14 ar   
    21   10   11 ar   
    22   10   81 1    
    23   11   12 ar   
    24   11   71 1    
    25   12   13 ar   
    26   12   82 1    
    27   13   14 ar   
    28   13   15 1    
    29   14   83 1    
    30   15   16 1    
    31   15   84 1    
    32   15   85 1    
    33   16   17 1    
    34   17   18 1    
    35   17   86 1    
    36   17   87 1    
    37   18   19 1    
    38   18   37 1    
    39   18   88 1    
    40   19   20 am   BACKBONE|DICT|INTERRES
    41   19   89 1    
    42   20   21 2    
    43   20   22 1    
    44   22   23 1    
    45   22   24 1    
    46   22   90 1    
    47   23   91 1    
    48   23   92 1    
    49   23   93 1    
    50   24   25 am   BACKBONE|DICT|INTERRES
    51   24   94 1    
    52   25   26 2    
    53   25   27 1    
    54   27   28 1    
    55   27   29 1    
    56   27   95 1    
    57   28   96 1    
    58   28   97 1    
    59   28   98 1    
    60   29   30 am   BACKBONE|DICT|INTERRES
    61   29   99 1    
    62   30   31 2    
    63   30   32 1    
    64   32   33 1    
    65   32   34 1    
    66   32  100 1    
    67   33  101 1    
    68   33  102 1    
    69   33  103 1    
    70   34   35 am   BACKBONE|DICT|INTERRES
    71   34  104 1    
    72   35   36 2    
    73   37   38 2    
    74   37   39 am   BACKBONE|DICT|INTERRES
    75   39   40 1    
    76   39  105 1    
    77   40   41 1    
    78   40   42 1    
    79   40  106 1    
    80   41  107 1    
    81   41  108 1    
    82   41  109 1    
    83   42   43 2    
    84   42   44 am   BACKBONE|DICT|INTERRES
    85   44   45 1    
    86   44  110 1    
    87   45   46 1    
    88   45   47 1    
    89   45  111 1    
    90   46  112 1    
    91   46  113 1    
    92   46  114 1    
    93   47   48 2    
    94   47   49 am   BACKBONE|DICT|INTERRES
    95   49   50 1    
    96   49  115 1    
    97   50   51 1    
    98   50   52 1    
    99   50  116 1    
   100   51  117 1    
   101   51  118 1    
   102   51  119 1    
   103   52   53 2    
   104   52   54 am   BACKBONE|DICT|INTERRES
   105   54   55 1    
   106   54  120 1    
   107   55   56 1    
   108   55   57 1    
   109   55  121 1    
   110   56  122 1    
   111   56  123 1    
   112   56  124 1    
   113   57   58 2    
   114   57   59 am   BACKBONE|DICT|INTERRES
   115   59   60 1    
   116   59  125 1    
   117   60   61 1    
   118   60   62 1    
   119   60  126 1    
   120   61  127 1    
   121   61  128 1    
   122   61  129 1    
   123   62   63 2    
   124   62   64 am   BACKBONE|DICT|INTERRES
   125   64   65 1    
   126   64  130 1    
   127   65   66 1    
   128   65   69 1    
   129   65  131 1    
   130   66   67 am   BACKBONE|DICT|INTERRES
   131   66   68 2    
   132   67  132 1    
   133   67  133 1    
   134   69   70 1    
   135   69  134 1    
   136   69  135 1    
   137   70   71 1    
   138   71  136 1    
   139   71  137 1    
@<TRIPOS>SUBSTRUCTURE
     1 UNK         1 GROUP             0       ****    0 ROOT    
