@<TRIPOS>MOLECULE
3R136
137   139    1
SMALL
USER_CHARGES


@<TRIPOS>ATOM
      1 CA         25.6169   21.6523    3.3211 C.3       0 UNK        -0.1979 
      2 C          26.3656   21.2031    2.0748 C.2       0 UNK         0.4864 
      3 O          26.7587   20.0394    1.9821 O.2       0 UNK        -0.5359 
      4 N          26.5637   22.1173    1.1210 N.am      1 UNK        -0.4318 
      5 CA         27.2512   21.9056   -0.1507 C.3       1 UNK         0.0824 
      6 C6         28.7881   21.7139    0.0046 C.3       12 UNK        -0.0944 
      7 S7         29.6780   23.1744    0.6412 S.3       12 UNK        -0.2672 
      8 C8         30.0375   22.6822    2.3611 C.3       12 UNK         0.0333 
      9 C9         30.7660   23.7748    3.1402 C.ar      12 UNK        -0.0807 
     10 C10        31.9114   24.3768    2.6063 C.ar      12 UNK        -0.0894 
     11 C11        32.5873   25.3744    3.3118 C.ar      12 UNK        -0.0804 
     12 C12        32.1283   25.7534    4.5751 C.ar      12 UNK        -0.0824 
     13 C13        30.9941   25.1555    5.1313 C.ar      12 UNK        -0.0762 
     14 C14        30.3110   24.1717    4.4051 C.ar      12 UNK        -0.0782 
     15 C15        30.5499   25.5354    6.5400 C.3       12 UNK         0.0230 
     16 S16        29.2172   26.7791    6.5666 S.3       12 UNK        -0.2608 
     17 C17        30.0411   28.2839    5.9181 C.3       12 UNK        -0.0989 
     18 CA         29.4000   28.8158    4.6079 C.3       5 UNK         0.0716 
     19 N          29.2434   27.7287    3.6317 N.am      5 UNK        -0.4135 
     20 C          28.7165   27.7795    2.4039 C.2       4 UNK         0.5031 
     21 O          28.2665   28.7973    1.8742 O.2       4 UNK        -0.5229 
     22 CA         28.5602   26.4196    1.7172 C.3       4 UNK         0.0329 
     23 CB         27.3141   25.6973    2.2556 C.3       4 UNK        -0.2001 
     24 N          28.4637   26.5214    0.2632 N.am      4 UNK        -0.4303 
     25 C          29.4898   26.8184   -0.5438 C.2       3 UNK         0.5044 
     26 O          30.6359   27.0394   -0.1492 O.2       3 UNK        -0.5152 
     27 CA         29.1771   26.8077   -2.0460 C.3       3 UNK         0.0319 
     28 CB         30.4150   27.0544   -2.9302 C.3       3 UNK        -0.2001 
     29 N          28.5679   25.5242   -2.3961 N.am      3 UNK        -0.4354 
     30 C          27.5259   25.3642   -3.2210 C.2       2 UNK         0.4964 
     31 O          26.9781   26.2930   -3.8165 O.2       2 UNK        -0.5047 
     32 CA         26.9957   23.9317   -3.4326 C.3       2 UNK         0.0288 
     33 CB         27.5068   23.3672   -4.7691 C.3       2 UNK        -0.2113 
     34 N          27.3166   22.9804   -2.3602 N.am      2 UNK        -0.4145 
     35 C          26.8580   23.0548   -1.1024 C.2       1 UNK         0.5006 
     36 O          26.1522   23.9807   -0.6877 O.2       1 UNK        -0.5103 
     37 C          28.1129   29.6215    4.9171 C.2       5 UNK         0.5055 
     38 O          28.2093   30.7301    5.4455 O.2       5 UNK        -0.5220 
     39 N          26.9360   29.0634    4.6014 N.am      6 UNK        -0.4450 
     40 CA         25.6395   29.7342    4.6933 C.3       6 UNK         0.0367 
     41 CB         24.5276   28.6740    4.6339 C.3       6 UNK        -0.1929 
     42 C          25.4198   30.8009    3.6014 C.2       6 UNK         0.5070 
     43 O          24.5822   31.6818    3.8000 O.2       6 UNK        -0.5237 
     44 N          26.1399   30.7013    2.4747 N.am      7 UNK        -0.4739 
     45 CA         26.0170   31.5981    1.3215 C.3       7 UNK         0.0276 
     46 CB         25.4014   30.8243    0.1430 C.3       7 UNK        -0.1927 
     47 C          27.3678   32.2074    0.9190 C.2       7 UNK         0.5013 
     48 O          27.4270   33.4052    0.6364 O.2       7 UNK        -0.5193 
     49 N          28.4200   31.3824    0.8894 N.am      8 UNK        -0.4253 
     50 CA         29.7950   31.7719    0.5821 C.3       8 UNK         0.0242 
     51 CB         30.4591   30.6140   -0.1860 C.3       8 UNK        -0.2000 
     52 C          30.5693   32.0844    1.8734 C.2       8 UNK         0.4948 
     53 O          30.0421   31.9159    2.9751 O.2       8 UNK        -0.5275 
     54 N          31.8263   32.5189    1.7184 N.am      9 UNK        -0.4246 
     55 CA         32.7800   32.6726    2.8197 C.3       9 UNK         0.0261 
     56 CB         34.0044   33.4573    2.3203 C.3       9 UNK        -0.1959 
     57 C          33.2091   31.3030    3.3769 C.2       9 UNK         0.5033 
     58 O          33.2707   30.3278    2.6230 O.2       9 UNK        -0.5390 
     59 N          33.5208   31.2581    4.6784 N.am      10 UNK        -0.4215 
     60 CA         34.0101   30.0603    5.3627 C.3       10 UNK         0.0240 
     61 CB         33.9883   30.2881    6.8827 C.3       10 UNK        -0.1982 
     62 C          35.4206   29.6797    4.8816 C.2       10 UNK         0.4970 
     63 O          36.3027   30.5395    4.8338 O.2       10 UNK        -0.4916 
     64 N          35.5931   28.3998    4.5434 N.am      11 UNK        -0.4279 
     65 CA         36.8343   27.8058    4.0254 C.3       11 UNK         0.1003 
     66 C          37.8133   27.2957    5.1235 C.2       11 UNK         0.5709 
     67 N          37.4729   27.3641    6.4055 N.am      11 UNK        -0.7358 
     68 O          38.9136   26.8487    4.8076 O.2       11 UNK        -0.4999 
     69 C69        36.5264   26.7308    2.9446 C.3       12 UNK        -0.0954 
     70 S70        35.3432   25.4499    3.4926 S.3       12 UNK        -0.2268 
     71 C71        33.8106   26.0495    2.7133 C.3       12 UNK         0.0203 
     72 H72        25.3434   22.7065    3.2743 H         1 UNK         0.0888 
     73 H73        24.7040   21.0696    3.4416 H         1 UNK         0.0888 
     74 H74        26.2368   21.5027    4.2047 H         1 UNK         0.0888 
     75 H75        26.1659   23.0456    1.1987 H         1 UNK         0.3017 
     76 H76        26.8392   20.9949   -0.5907 H         1 UNK         0.0873 
     77 H77        28.9937   20.8597    0.6513 H         1 UNK         0.0745 
     78 H78        29.2326   21.4489   -0.9558 H         1 UNK         0.0745 
     79 H79        29.0998   22.4212    2.8536 H         1 UNK         0.0705 
     80 H80        30.6526   21.7815    2.3568 H         1 UNK         0.0705 
     81 H81        32.2708   24.0743    1.6321 H         1 UNK         0.1334 
     82 H82        32.6712   26.5025    5.1334 H         1 UNK         0.1417 
     83 H83        29.4370   23.7018    4.8362 H         1 UNK         0.1562 
     84 H84        31.3962   25.9045    7.1219 H         1 UNK         0.0748 
     85 H85        30.1997   24.6424    7.0600 H         1 UNK         0.0748 
     86 H86        31.0957   28.0772    5.7450 H         1 UNK         0.0940 
     87 H87        30.0373   29.0480    6.6986 H         1 UNK         0.0940 
     88 H88        30.0974   29.5268    4.1615 H         1 UNK         0.0703 
     89 H89        29.5471   26.8271    3.9735 H         1 UNK         0.3081 
     90 H90        29.4431   25.8257    1.9508 H         1 UNK         0.0719 
     91 H91        27.3618   25.5703    3.3380 H         1 UNK         0.0809 
     92 H92        27.2277   24.7023    1.8248 H         1 UNK         0.0809 
     93 H93        26.3981   26.2436    2.0263 H         1 UNK         0.0809 
     94 H94        27.5573   26.3466   -0.1468 H         1 UNK         0.2990 
     95 H95        28.4681   27.6209   -2.2162 H         1 UNK         0.0690 
     96 H96        30.1476   27.0801   -3.9867 H         1 UNK         0.0788 
     97 H97        31.1681   26.2775   -2.7931 H         1 UNK         0.0788 
     98 H98        30.8819   28.0107   -2.6905 H         1 UNK         0.0788 
     99 H99        28.9416   24.7128   -1.9222 H         1 UNK         0.2993 
    100 H100       25.9072   24.0053   -3.4889 H         1 UNK         0.0949 
    101 H101       27.2569   24.0331   -5.5967 H         1 UNK         0.0767 
    102 H102       28.5907   23.2436   -4.7666 H         1 UNK         0.0767 
    103 H103       27.0570   22.3989   -4.9901 H         1 UNK         0.0767 
    104 H104       27.8945   22.1940   -2.6204 H         1 UNK         0.3013 
    105 H105       26.9425   28.1395    4.1974 H         1 UNK         0.3121 
    106 H106       25.5809   30.2376    5.6608 H         1 UNK         0.0774 
    107 H107       23.5440   29.1352    4.7336 H         1 UNK         0.0815 
    108 H108       24.5372   28.1303    3.6883 H         1 UNK         0.0815 
    109 H109       24.6260   27.9485    5.4416 H         1 UNK         0.0815 
    110 H110       26.8365   29.9649    2.4031 H         1 UNK         0.2987 
    111 H111       25.3546   32.4336    1.5585 H         1 UNK         0.0949 
    112 H112       24.4016   30.4647    0.3869 H         1 UNK         0.0806 
    113 H113       25.3109   31.4603   -0.7386 H         1 UNK         0.0806 
    114 H114       26.0081   29.9615   -0.1356 H         1 UNK         0.0806 
    115 H115       28.3031   30.4196    1.2019 H         1 UNK         0.3010 
    116 H116       29.7976   32.6635   -0.0485 H         1 UNK         0.0829 
    117 H117       29.8742   30.3270   -1.0600 H         1 UNK         0.0813 
    118 H118       31.4534   30.8866   -0.5409 H         1 UNK         0.0813 
    119 H119       30.5719   29.7305    0.4441 H         1 UNK         0.0813 
    120 H120       32.2008   32.6010    0.7846 H         1 UNK         0.3038 
    121 H121       32.2973   33.2436    3.6161 H         1 UNK         0.0769 
    122 H122       34.5229   32.9289    1.5189 H         1 UNK         0.0811 
    123 H123       34.7246   33.6127    3.1249 H         1 UNK         0.0811 
    124 H124       33.7210   34.4415    1.9466 H         1 UNK         0.0811 
    125 H125       33.4880   32.1095    5.2205 H         1 UNK         0.3204 
    126 H126       33.3227   29.2434    5.1322 H         1 UNK         0.0748 
    127 H127       34.3203   29.3966    7.4165 H         1 UNK         0.0771 
    128 H128       34.6444   31.1080    7.1782 H         1 UNK         0.0771 
    129 H129       32.9825   30.5183    7.2352 H         1 UNK         0.0771 
    130 H130       34.8253   27.7539    4.6396 H         1 UNK         0.2980 
    131 H131       37.3888   28.5960    3.5159 H         1 UNK         0.0545 
    132 H132       36.5793   27.7372    6.6797 H         1 UNK         0.3459 
    133 H133       38.1206   27.0372    7.1050 H         1 UNK         0.3459 
    134 H134       36.1275   27.2191    2.0541 H         1 UNK         0.0616 
    135 H135       37.4415   26.2371    2.6128 H         1 UNK         0.0616 
    136 H136       33.7194   27.1294    2.8397 H         1 UNK         0.0634 
    137 H137       33.8634   25.8723    1.6379 H         1 UNK         0.0634 
@<TRIPOS>BOND
     1    1    2 1    
     2    1   72 1    
     3    1   73 1    
     4    1   74 1    
     5    2    3 2    
     6    2    4 am   BACKBONE|DICT|INTERRES
     7    4    5 1    
     8    4   75 1    
     9    5    6 1    
    10    5   35 1    
    11    5   76 1    
    12    6    7 1    
    13    6   77 1    
    14    6   78 1    
    15    7    8 1    
    16    8    9 1    
    17    8   79 1    
    18    8   80 1    
    19    9   10 ar   
    20    9   14 ar   
    21   10   11 ar   
    22   10   81 1    
    23   11   12 ar   
    24   11   71 1    
    25   12   13 ar   
    26   12   82 1    
    27   13   14 ar   
    28   13   15 1    
    29   14   83 1    
    30   15   16 1    
    31   15   84 1    
    32   15   85 1    
    33   16   17 1    
    34   17   18 1    
    35   17   86 1    
    36   17   87 1    
    37   18   19 1    
    38   18   37 1    
    39   18   88 1    
    40   19   20 am   BACKBONE|DICT|INTERRES
    41   19   89 1    
    42   20   21 2    
    43   20   22 1    
    44   22   23 1    
    45   22   24 1    
    46   22   90 1    
    47   23   91 1    
    48   23   92 1    
    49   23   93 1    
    50   24   25 am   BACKBONE|DICT|INTERRES
    51   24   94 1    
    52   25   26 2    
    53   25   27 1    
    54   27   28 1    
    55   27   29 1    
    56   27   95 1    
    57   28   96 1    
    58   28   97 1    
    59   28   98 1    
    60   29   30 am   BACKBONE|DICT|INTERRES
    61   29   99 1    
    62   30   31 2    
    63   30   32 1    
    64   32   33 1    
    65   32   34 1    
    66   32  100 1    
    67   33  101 1    
    68   33  102 1    
    69   33  103 1    
    70   34   35 am   BACKBONE|DICT|INTERRES
    71   34  104 1    
    72   35   36 2    
    73   37   38 2    
    74   37   39 am   BACKBONE|DICT|INTERRES
    75   39   40 1    
    76   39  105 1    
    77   40   41 1    
    78   40   42 1    
    79   40  106 1    
    80   41  107 1    
    81   41  108 1    
    82   41  109 1    
    83   42   43 2    
    84   42   44 am   BACKBONE|DICT|INTERRES
    85   44   45 1    
    86   44  110 1    
    87   45   46 1    
    88   45   47 1    
    89   45  111 1    
    90   46  112 1    
    91   46  113 1    
    92   46  114 1    
    93   47   48 2    
    94   47   49 am   BACKBONE|DICT|INTERRES
    95   49   50 1    
    96   49  115 1    
    97   50   51 1    
    98   50   52 1    
    99   50  116 1    
   100   51  117 1    
   101   51  118 1    
   102   51  119 1    
   103   52   53 2    
   104   52   54 am   BACKBONE|DICT|INTERRES
   105   54   55 1    
   106   54  120 1    
   107   55   56 1    
   108   55   57 1    
   109   55  121 1    
   110   56  122 1    
   111   56  123 1    
   112   56  124 1    
   113   57   58 2    
   114   57   59 am   BACKBONE|DICT|INTERRES
   115   59   60 1    
   116   59  125 1    
   117   60   61 1    
   118   60   62 1    
   119   60  126 1    
   120   61  127 1    
   121   61  128 1    
   122   61  129 1    
   123   62   63 2    
   124   62   64 am   BACKBONE|DICT|INTERRES
   125   64   65 1    
   126   64  130 1    
   127   65   66 1    
   128   65   69 1    
   129   65  131 1    
   130   66   67 am   BACKBONE|DICT|INTERRES
   131   66   68 2    
   132   67  132 1    
   133   67  133 1    
   134   69   70 1    
   135   69  134 1    
   136   69  135 1    
   137   70   71 1    
   138   71  136 1    
   139   71  137 1    
@<TRIPOS>SUBSTRUCTURE
     1 UNK         1 GROUP             0       ****    0 ROOT    
