@<TRIPOS>MOLECULE
3R136
137   139    1
SMALL
USER_CHARGES


@<TRIPOS>ATOM
      1 CA         29.7706   27.7618   -4.1986 C.3       0 UNK        -0.1979 
      2 C          30.1001   26.3316   -4.6202 C.2       0 UNK         0.4864 
      3 O          30.3365   26.0920   -5.8034 O.2       0 UNK        -0.5359 
      4 N          30.1453   25.3557   -3.7026 N.am      1 UNK        -0.4318 
      5 CA         29.7961   25.4671   -2.2842 C.3       1 UNK         0.0824 
      6 C6         30.4830   24.3514   -1.4595 C.3       12 UNK        -0.0944 
      7 S7         30.5054   24.7421    0.3161 S.3       12 UNK        -0.2672 
      8 C8         31.3166   23.2644    0.9886 C.3       12 UNK         0.0333 
      9 C9         31.5597   23.4553    2.4741 C.ar      12 UNK        -0.0807 
     10 C10        32.6229   24.2551    2.8995 C.ar      12 UNK        -0.0894 
     11 C11        32.8066   24.5268    4.2564 C.ar      12 UNK        -0.0804 
     12 C12        31.9369   23.9633    5.1941 C.ar      12 UNK        -0.0824 
     13 C13        30.8778   23.1471    4.7815 C.ar      12 UNK        -0.0762 
     14 C14        30.6970   22.8902    3.4186 C.ar      12 UNK        -0.0782 
     15 C15        29.9112   22.5740    5.8111 C.3       12 UNK         0.0230 
     16 S16        28.2452   23.3141    5.7064 S.3       12 UNK        -0.2608 
     17 C17        28.6084   25.1033    5.7305 C.3       12 UNK        -0.0989 
     18 CA         28.3183   25.7445    4.3437 C.3       5 UNK         0.0716 
     19 N          26.8923   25.8306    4.0046 N.am      5 UNK        -0.4135 
     20 C          25.9339   26.4798    4.6875 C.2       4 UNK         0.5031 
     21 O          26.1284   27.0638    5.7542 O.2       4 UNK        -0.5229 
     22 CA         24.5093   26.5194    4.0910 C.3       4 UNK         0.0329 
     23 CB         24.0792   27.9719    3.8182 C.3       4 UNK        -0.2001 
     24 N          24.3569   25.7547    2.8532 N.am      4 UNK        -0.4303 
     25 C          24.3230   24.4194    2.7505 C.2       3 UNK         0.5044 
     26 O          24.2934   23.6590    3.7179 O.2       3 UNK        -0.5152 
     27 CA         24.3667   23.8319    1.3246 C.3       3 UNK         0.0319 
     28 CB         22.9793   23.3109    0.9155 C.3       3 UNK        -0.2001 
     29 N          24.8523   24.7640    0.2952 N.am      3 UNK        -0.4354 
     30 C          26.0695   25.3260    0.2669 C.2       2 UNK         0.4964 
     31 O          26.9284   25.1482    1.1351 O.2       2 UNK        -0.5047 
     32 CA         26.3270   26.3285   -0.8660 C.3       2 UNK         0.0288 
     33 CB         25.9653   27.7502   -0.4038 C.3       2 UNK        -0.2113 
     34 N          27.7340   26.3011   -1.2546 N.am      2 UNK        -0.4145 
     35 C          28.2637   25.4267   -2.1164 C.2       1 UNK         0.5006 
     36 O          27.6012   24.6068   -2.7589 O.2       1 UNK        -0.5103 
     37 C          28.9866   27.1148    4.1375 C.2       5 UNK         0.5055 
     38 O          29.5100   27.7142    5.0807 O.2       5 UNK        -0.5220 
     39 N          28.9301   27.5931    2.8901 N.am      6 UNK        -0.4450 
     40 CA         29.5433   28.8381    2.4550 C.3       6 UNK         0.0367 
     41 CB         28.5284   29.9889    2.5675 C.3       6 UNK        -0.1929 
     42 C          30.0285   28.6721    1.0156 C.2       6 UNK         0.5070 
     43 O          29.3627   28.0064    0.2197 O.2       6 UNK        -0.5237 
     44 N          31.1598   29.3048    0.7057 N.am      7 UNK        -0.4739 
     45 CA         31.7632   29.3428   -0.6221 C.3       7 UNK         0.0276 
     46 CB         32.8101   28.2162   -0.7509 C.3       7 UNK        -0.1927 
     47 C          32.3030   30.7617   -0.8377 C.2       7 UNK         0.5013 
     48 O          31.5013   31.6865   -0.9761 O.2       7 UNK        -0.5193 
     49 N          33.6334   30.9302   -0.8192 N.am      8 UNK        -0.4253 
     50 CA         34.3066   32.2365   -0.8442 C.3       8 UNK         0.0242 
     51 CB         35.8098   32.0275   -1.0907 C.3       8 UNK        -0.2000 
     52 C          34.0794   33.0606    0.4400 C.2       8 UNK         0.4948 
     53 O          34.1661   34.2885    0.3983 O.2       8 UNK        -0.5275 
     54 N          33.7781   32.3700    1.5436 N.am      9 UNK        -0.4246 
     55 CA         33.3499   32.9056    2.8282 C.3       9 UNK         0.0261 
     56 CB         34.5787   33.1307    3.7276 C.3       9 UNK        -0.1959 
     57 C          32.3841   31.8869    3.4477 C.2       9 UNK         0.5033 
     58 O          32.3110   30.7476    2.9719 O.2       9 UNK        -0.5390 
     59 N          31.6805   32.2951    4.5105 N.am      10 UNK        -0.4215 
     60 CA         30.8027   31.4417    5.3173 C.3       10 UNK         0.0240 
     61 CB         29.7551   32.3206    6.0253 C.3       10 UNK        -0.1982 
     62 C          31.6269   30.5880    6.2986 C.2       10 UNK         0.4970 
     63 O          31.6077   30.8377    7.5053 O.2       10 UNK        -0.4916 
     64 N          32.3851   29.6370    5.7454 N.am      11 UNK        -0.4279 
     65 CA         33.3132   28.7568    6.4672 C.3       11 UNK         0.1003 
     66 C          32.6555   27.6975    7.3995 C.2       11 UNK         0.5709 
     67 N          31.3761   27.3750    7.2573 N.am      11 UNK        -0.7358 
     68 O          33.3239   27.1672    8.2838 O.2       11 UNK        -0.4999 
     69 C69        34.3536   28.1312    5.5014 C.3       12 UNK        -0.0954 
     70 S70        33.5897   27.1646    4.1547 S.3       12 UNK        -0.2268 
     71 C71        33.9203   25.4598    4.7019 C.3       12 UNK         0.0203 
     72 H72        28.8057   27.8188   -3.6965 H         1 UNK         0.0888 
     73 H73        30.5401   28.1518   -3.5340 H         1 UNK         0.0888 
     74 H74        29.7257   28.4150   -5.0698 H         1 UNK         0.0888 
     75 H75        30.3367   24.4161   -4.0193 H         1 UNK         0.3017 
     76 H76        30.1660   26.4269   -1.9178 H         1 UNK         0.0873 
     77 H77        30.0066   23.3815   -1.6181 H         1 UNK         0.0745 
     78 H78        31.5211   24.2388   -1.7771 H         1 UNK         0.0745 
     79 H79        30.6943   22.3874    0.8038 H         1 UNK         0.0705 
     80 H80        32.2642   23.0958    0.4746 H         1 UNK         0.0705 
     81 H81        33.2795   24.7085    2.1691 H         1 UNK         0.1334 
     82 H82        32.0699   24.1816    6.2451 H         1 UNK         0.1417 
     83 H83        29.8629   22.2825    3.0944 H         1 UNK         0.1562 
     84 H84        30.2951   22.7177    6.8224 H         1 UNK         0.0748 
     85 H85        29.8291   21.4958    5.6676 H         1 UNK         0.0748 
     86 H86        29.6485   25.2537    6.0190 H         1 UNK         0.0940 
     87 H87        28.0273   25.5741    6.5233 H         1 UNK         0.0940 
     88 H88        28.7654   25.0978    3.5865 H         1 UNK         0.0703 
     89 H89        26.6500   25.4239    3.1073 H         1 UNK         0.3081 
     90 H90        23.8358   26.0962    4.8391 H         1 UNK         0.0719 
     91 H91        24.7279   28.4539    3.0854 H         1 UNK         0.0809 
     92 H92        23.0554   28.0210    3.4467 H         1 UNK         0.0809 
     93 H93        24.1175   28.5706    4.7293 H         1 UNK         0.0809 
     94 H94        24.3639   26.2861    1.9955 H         1 UNK         0.2990 
     95 H95        25.0564   22.9857    1.3503 H         1 UNK         0.0690 
     96 H96        23.0129   22.8047   -0.0495 H         1 UNK         0.0788 
     97 H97        22.2485   24.1179    0.8481 H         1 UNK         0.0788 
     98 H98        22.6021   22.5902    1.6428 H         1 UNK         0.0788 
     99 H99        24.2008   24.9864   -0.4446 H         1 UNK         0.2993 
    100 H100       25.7085   26.0692   -1.7284 H         1 UNK         0.0949 
    101 H101       24.9063   27.8266   -0.1542 H         1 UNK         0.0767 
    102 H102       26.5328   28.0440    0.4804 H         1 UNK         0.0767 
    103 H103       26.1667   28.4829   -1.1856 H         1 UNK         0.0767 
    104 H104       28.3587   26.9032   -0.7154 H         1 UNK         0.3013 
    105 H105       28.5383   27.0271    2.1460 H         1 UNK         0.3121 
    106 H106       30.4091   29.0435    3.0853 H         1 UNK         0.0774 
    107 H107       27.6700   29.8333    1.9131 H         1 UNK         0.0815 
    108 H108       28.9866   30.9386    2.2882 H         1 UNK         0.0815 
    109 H109       28.1555   30.0935    3.5864 H         1 UNK         0.0815 
    110 H110       31.6161   29.8582    1.4288 H         1 UNK         0.2987 
    111 H111       30.9943   29.1899   -1.3820 H         1 UNK         0.0949 
    112 H112       33.5733   28.2717    0.0263 H         1 UNK         0.0806 
    113 H113       32.3363   27.2377   -0.6673 H         1 UNK         0.0806 
    114 H114       33.3085   28.2458   -1.7208 H         1 UNK         0.0806 
    115 H115       34.2213   30.1159   -0.7123 H         1 UNK         0.3010 
    116 H116       33.8984   32.8122   -1.6779 H         1 UNK         0.0829 
    117 H117       35.9902   31.5108   -2.0336 H         1 UNK         0.0813 
    118 H118       36.3324   32.9838   -1.1426 H         1 UNK         0.0813 
    119 H119       36.2740   31.4463   -0.2929 H         1 UNK         0.0813 
    120 H120       33.6784   31.3649    1.4791 H         1 UNK         0.3038 
    121 H121       32.8153   33.8459    2.6770 H         1 UNK         0.0769 
    122 H122       35.1114   32.1985    3.9208 H         1 UNK         0.0811 
    123 H123       34.2929   33.5506    4.6926 H         1 UNK         0.0811 
    124 H124       35.2812   33.8271    3.2693 H         1 UNK         0.0811 
    125 H125       31.8229   33.2355    4.8513 H         1 UNK         0.3204 
    126 H126       30.2653   30.7552    4.6638 H         1 UNK         0.0748 
    127 H127       30.2180   33.0522    6.6889 H         1 UNK         0.0771 
    128 H128       29.1413   32.8617    5.3048 H         1 UNK         0.0771 
    129 H129       29.0812   31.7112    6.6292 H         1 UNK         0.0771 
    130 H130       32.3591   29.5228    4.7392 H         1 UNK         0.2980 
    131 H131       33.8772   29.4057    7.1400 H         1 UNK         0.0545 
    132 H132       30.9707   26.7062    7.8900 H         1 UNK         0.3459 
    133 H133       30.8193   27.7454    6.4923 H         1 UNK         0.3459 
    134 H134       34.9378   28.9275    5.0377 H         1 UNK         0.0616 
    135 H135       35.0772   27.5208    6.0446 H         1 UNK         0.0616 
    136 H136       34.0228   25.4286    5.7876 H         1 UNK         0.0634 
    137 H137       34.8732   25.1262    4.2891 H         1 UNK         0.0634 
@<TRIPOS>BOND
     1    1    2 1    
     2    1   72 1    
     3    1   73 1    
     4    1   74 1    
     5    2    3 2    
     6    2    4 am   BACKBONE|DICT|INTERRES
     7    4    5 1    
     8    4   75 1    
     9    5    6 1    
    10    5   35 1    
    11    5   76 1    
    12    6    7 1    
    13    6   77 1    
    14    6   78 1    
    15    7    8 1    
    16    8    9 1    
    17    8   79 1    
    18    8   80 1    
    19    9   10 ar   
    20    9   14 ar   
    21   10   11 ar   
    22   10   81 1    
    23   11   12 ar   
    24   11   71 1    
    25   12   13 ar   
    26   12   82 1    
    27   13   14 ar   
    28   13   15 1    
    29   14   83 1    
    30   15   16 1    
    31   15   84 1    
    32   15   85 1    
    33   16   17 1    
    34   17   18 1    
    35   17   86 1    
    36   17   87 1    
    37   18   19 1    
    38   18   37 1    
    39   18   88 1    
    40   19   20 am   BACKBONE|DICT|INTERRES
    41   19   89 1    
    42   20   21 2    
    43   20   22 1    
    44   22   23 1    
    45   22   24 1    
    46   22   90 1    
    47   23   91 1    
    48   23   92 1    
    49   23   93 1    
    50   24   25 am   BACKBONE|DICT|INTERRES
    51   24   94 1    
    52   25   26 2    
    53   25   27 1    
    54   27   28 1    
    55   27   29 1    
    56   27   95 1    
    57   28   96 1    
    58   28   97 1    
    59   28   98 1    
    60   29   30 am   BACKBONE|DICT|INTERRES
    61   29   99 1    
    62   30   31 2    
    63   30   32 1    
    64   32   33 1    
    65   32   34 1    
    66   32  100 1    
    67   33  101 1    
    68   33  102 1    
    69   33  103 1    
    70   34   35 am   BACKBONE|DICT|INTERRES
    71   34  104 1    
    72   35   36 2    
    73   37   38 2    
    74   37   39 am   BACKBONE|DICT|INTERRES
    75   39   40 1    
    76   39  105 1    
    77   40   41 1    
    78   40   42 1    
    79   40  106 1    
    80   41  107 1    
    81   41  108 1    
    82   41  109 1    
    83   42   43 2    
    84   42   44 am   BACKBONE|DICT|INTERRES
    85   44   45 1    
    86   44  110 1    
    87   45   46 1    
    88   45   47 1    
    89   45  111 1    
    90   46  112 1    
    91   46  113 1    
    92   46  114 1    
    93   47   48 2    
    94   47   49 am   BACKBONE|DICT|INTERRES
    95   49   50 1    
    96   49  115 1    
    97   50   51 1    
    98   50   52 1    
    99   50  116 1    
   100   51  117 1    
   101   51  118 1    
   102   51  119 1    
   103   52   53 2    
   104   52   54 am   BACKBONE|DICT|INTERRES
   105   54   55 1    
   106   54  120 1    
   107   55   56 1    
   108   55   57 1    
   109   55  121 1    
   110   56  122 1    
   111   56  123 1    
   112   56  124 1    
   113   57   58 2    
   114   57   59 am   BACKBONE|DICT|INTERRES
   115   59   60 1    
   116   59  125 1    
   117   60   61 1    
   118   60   62 1    
   119   60  126 1    
   120   61  127 1    
   121   61  128 1    
   122   61  129 1    
   123   62   63 2    
   124   62   64 am   BACKBONE|DICT|INTERRES
   125   64   65 1    
   126   64  130 1    
   127   65   66 1    
   128   65   69 1    
   129   65  131 1    
   130   66   67 am   BACKBONE|DICT|INTERRES
   131   66   68 2    
   132   67  132 1    
   133   67  133 1    
   134   69   70 1    
   135   69  134 1    
   136   69  135 1    
   137   70   71 1    
   138   71  136 1    
   139   71  137 1    
@<TRIPOS>SUBSTRUCTURE
     1 UNK         1 GROUP             0       ****    0 ROOT    
