@<TRIPOS>MOLECULE
3R136
137   139    1
SMALL
USER_CHARGES


@<TRIPOS>ATOM
      1 CA         30.4305   24.1173   -3.8250 C.3       0 UNK        -0.1979 
      2 C          30.6515   23.4809   -2.4609 C.2       0 UNK         0.4864 
      3 O          31.7968   23.3457   -2.0297 O.2       0 UNK        -0.5359 
      4 N          29.5641   23.0984   -1.7815 N.am      1 UNK        -0.4318 
      5 CA         29.5782   22.5330   -0.4320 C.3       1 UNK         0.0824 
      6 C6         30.0320   21.0486   -0.4008 C.3       12 UNK        -0.0944 
      7 S7         30.2598   20.3557    1.2728 S.3       12 UNK        -0.2672 
      8 C8         31.9476   20.9036    1.7035 C.3       12 UNK         0.0333 
      9 C9         31.9636   22.3540    2.1663 C.ar      12 UNK        -0.0807 
     10 C10        32.6020   23.3412    1.4080 C.ar      12 UNK        -0.0894 
     11 C11        32.5431   24.6841    1.7970 C.ar      12 UNK        -0.0804 
     12 C12        31.8529   25.0310    2.9618 C.ar      12 UNK        -0.0824 
     13 C13        31.2488   24.0487    3.7496 C.ar      12 UNK        -0.0762 
     14 C14        31.3095   22.7124    3.3482 C.ar      12 UNK        -0.0782 
     15 C15        30.5096   24.4249    5.0222 C.3       12 UNK         0.0230 
     16 S16        28.7336   24.6136    4.6877 S.3       12 UNK        -0.2608 
     17 C17        28.4436   26.3532    5.1464 C.3       12 UNK        -0.0989 
     18 CA         29.0279   27.3969    4.1574 C.3       5 UNK         0.0716 
     19 N          28.7508   27.0708    2.7539 N.am      5 UNK        -0.4135 
     20 C          29.1320   27.7951    1.6918 C.2       4 UNK         0.5031 
     21 O          29.8175   28.8142    1.7616 O.2       4 UNK        -0.5229 
     22 CA         28.6016   27.3533    0.3192 C.3       4 UNK         0.0329 
     23 CB         29.5979   26.4085   -0.3658 C.3       4 UNK        -0.2001 
     24 N          27.2754   26.7294    0.3608 N.am      4 UNK        -0.4303 
     25 C          26.1559   27.2680    0.8651 C.2       3 UNK         0.5044 
     26 O          26.1265   28.3728    1.4120 O.2       3 UNK        -0.5152 
     27 CA         24.8553   26.4382    0.7947 C.3       3 UNK         0.0319 
     28 CB         23.9279   26.9707   -0.3147 C.3       3 UNK        -0.2001 
     29 N          25.0372   24.9777    0.6924 N.am      3 UNK        -0.4354 
     30 C          25.5692   24.2710   -0.3155 C.2       2 UNK         0.4964 
     31 O          25.9708   24.7648   -1.3712 O.2       2 UNK        -0.5047 
     32 CA         25.7587   22.7617   -0.0831 C.3       2 UNK         0.0288 
     33 CB         24.7619   21.9494   -0.9253 C.3       2 UNK        -0.2113 
     34 N          27.1282   22.3651   -0.4264 N.am      2 UNK        -0.4145 
     35 C          28.2170   22.8064    0.2241 C.2       1 UNK         0.5006 
     36 O          28.1638   23.4844    1.2510 O.2       1 UNK        -0.5103 
     37 C          28.5255   28.8014    4.5528 C.2       5 UNK         0.5055 
     38 O          29.2044   29.4972    5.3067 O.2       5 UNK        -0.5220 
     39 N          27.3486   29.1869    4.0394 N.am      6 UNK        -0.4450 
     40 CA         26.7415   30.4956    4.2665 C.3       6 UNK         0.0367 
     41 CB         25.2101   30.3584    4.2549 C.3       6 UNK        -0.1929 
     42 C          27.1993   31.5126    3.2134 C.2       6 UNK         0.5070 
     43 O          27.4688   32.6599    3.5671 O.2       6 UNK        -0.5237 
     44 N          27.2698   31.0843    1.9438 N.am      7 UNK        -0.4739 
     45 CA         27.5889   31.9472    0.8030 C.3       7 UNK         0.0276 
     46 CB         27.2679   31.2178   -0.5106 C.3       7 UNK        -0.1927 
     47 C          29.0369   32.4647    0.8050 C.2       7 UNK         0.5013 
     48 O          29.2464   33.6499    0.5427 O.2       7 UNK        -0.5193 
     49 N          30.0044   31.5849    1.1021 N.am      8 UNK        -0.4253 
     50 CA         31.4233   31.9416    1.2006 C.3       8 UNK         0.0242 
     51 CB         32.2857   30.7404    0.7839 C.3       8 UNK        -0.2000 
     52 C          31.8120   32.4184    2.6091 C.2       8 UNK         0.4948 
     53 O          32.8312   33.0965    2.7455 O.2       8 UNK        -0.5275 
     54 N          31.0189   32.0472    3.6265 N.am      9 UNK        -0.4246 
     55 CA         31.1171   32.3833    5.0560 C.3       9 UNK         0.0261 
     56 CB         30.9698   33.9002    5.2839 C.3       9 UNK        -0.1959 
     57 C          32.3625   31.8322    5.7775 C.2       9 UNK         0.5033 
     58 O          32.2274   31.2543    6.8564 O.2       9 UNK        -0.5390 
     59 N          33.5478   32.0269    5.1891 N.am      10 UNK        -0.4215 
     60 CA         34.8368   31.5661    5.7105 C.3       10 UNK         0.0240 
     61 CB         35.9583   32.4212    5.0984 C.3       10 UNK        -0.1982 
     62 C          35.0965   30.0729    5.4451 C.2       10 UNK         0.4970 
     63 O          35.8668   29.4588    6.1843 O.2       10 UNK        -0.4916 
     64 N          34.4765   29.5255    4.3920 N.am      11 UNK        -0.4279 
     65 CA         34.5682   28.1146    3.9970 C.3       11 UNK         0.1003 
     66 C          33.8643   27.1797    5.0182 C.2       11 UNK         0.5709 
     67 N          34.4849   26.0650    5.3783 N.am      11 UNK        -0.7358 
     68 O          32.7456   27.4423    5.4538 O.2       11 UNK        -0.4999 
     69 C69        34.0234   27.9277    2.5576 C.3       12 UNK        -0.0954 
     70 S70        34.6887   26.4499    1.7184 S.3       12 UNK        -0.2268 
     71 C71        33.1949   25.7588    0.9388 C.3       12 UNK         0.0203 
     72 H72        30.8415   25.1264   -3.8379 H         1 UNK         0.0888 
     73 H73        30.9331   23.5343   -4.5964 H         1 UNK         0.0888 
     74 H74        29.3729   24.1790   -4.0813 H         1 UNK         0.0888 
     75 H75        28.6483   23.2795   -2.1699 H         1 UNK         0.3017 
     76 H76        30.2962   23.1175    0.1402 H         1 UNK         0.0873 
     77 H77        29.3134   20.4225   -0.9320 H         1 UNK         0.0745 
     78 H78        30.9730   20.9346   -0.9405 H         1 UNK         0.0745 
     79 H79        32.3267   20.2725    2.5085 H         1 UNK         0.0705 
     80 H80        32.6150   20.7509    0.8540 H         1 UNK         0.0705 
     81 H81        33.1101   23.0695    0.4923 H         1 UNK         0.1334 
     82 H82        31.7855   26.0665    3.2581 H         1 UNK         0.1417 
     83 H83        30.8153   21.9525    3.9384 H         1 UNK         0.1562 
     84 H84        30.9246   25.3399    5.4470 H         1 UNK         0.0748 
     85 H85        30.6488   23.6502    5.7777 H         1 UNK         0.0748 
     86 H86        28.8400   26.5198    6.1503 H         1 UNK         0.0940 
     87 H87        27.3612   26.4718    5.2325 H         1 UNK         0.0940 
     88 H88        30.1135   27.4055    4.2686 H         1 UNK         0.0703 
     89 H89        28.2255   26.2225    2.5927 H         1 UNK         0.3081 
     90 H90        28.5110   28.2443   -0.3007 H         1 UNK         0.0719 
     91 H91        29.8123   25.5333    0.2481 H         1 UNK         0.0809 
     92 H92        29.2233   26.0662   -1.3303 H         1 UNK         0.0809 
     93 H93        30.5438   26.9169   -0.5529 H         1 UNK         0.0809 
     94 H94        27.1764   25.8389   -0.1110 H         1 UNK         0.2990 
     95 H95        24.3477   26.6009    1.7468 H         1 UNK         0.0690 
     96 H96        22.9774   26.4376   -0.3274 H         1 UNK         0.0788 
     97 H97        24.3778   26.8800   -1.3037 H         1 UNK         0.0788 
     98 H98        23.7045   28.0272   -0.1592 H         1 UNK         0.0788 
     99 H99        24.7777   24.4674    1.5260 H         1 UNK         0.2993 
    100 H100       25.5930   22.5335    0.9722 H         1 UNK         0.0949 
    101 H101       24.8738   20.8791   -0.7506 H         1 UNK         0.0767 
    102 H102       23.7337   22.2125   -0.6726 H         1 UNK         0.0767 
    103 H103       24.8915   22.1316   -1.9932 H         1 UNK         0.0767 
    104 H104       27.2414   21.8096   -1.2614 H         1 UNK         0.3013 
    105 H105       26.8847   28.5865    3.3675 H         1 UNK         0.3121 
    106 H106       27.0370   30.8713    5.2489 H         1 UNK         0.0774 
    107 H107       24.8411   29.9858    3.2984 H         1 UNK         0.0815 
    108 H108       24.7321   31.3222    4.4353 H         1 UNK         0.0815 
    109 H109       24.8682   29.6770    5.0340 H         1 UNK         0.0815 
    110 H110       26.9937   30.1292    1.7361 H         1 UNK         0.2987 
    111 H111       26.9337   32.8192    0.8649 H         1 UNK         0.0949 
    112 H112       27.9316   30.3712   -0.6757 H         1 UNK         0.0806 
    113 H113       26.2417   30.8498   -0.5238 H         1 UNK         0.0806 
    114 H114       27.3836   31.8883   -1.3632 H         1 UNK         0.0806 
    115 H115       29.7638   30.6157    1.3039 H         1 UNK         0.3010 
    116 H116       31.6399   32.7591    0.5092 H         1 UNK         0.0829 
    117 H117       32.1493   29.8967    1.4582 H         1 UNK         0.0813 
    118 H118       32.0401   30.4054   -0.2239 H         1 UNK         0.0813 
    119 H119       33.3457   30.9980    0.7915 H         1 UNK         0.0813 
    120 H120       30.2321   31.4582    3.3917 H         1 UNK         0.3038 
    121 H121       30.2543   31.9081    5.5244 H         1 UNK         0.0769 
    122 H122       30.9548   34.1335    6.3493 H         1 UNK         0.0811 
    123 H123       31.7906   34.4644    4.8404 H         1 UNK         0.0811 
    124 H124       30.0380   34.2728    4.8576 H         1 UNK         0.0811 
    125 H125       33.5432   32.5208    4.2965 H         1 UNK         0.3204 
    126 H126       34.8476   31.7144    6.7926 H         1 UNK         0.0748 
    127 H127       36.9343   32.1190    5.4811 H         1 UNK         0.0771 
    128 H128       35.9899   32.3288    4.0119 H         1 UNK         0.0771 
    129 H129       35.8291   33.4762    5.3413 H         1 UNK         0.0771 
    130 H130       33.8354   30.0973    3.8660 H         1 UNK         0.2980 
    131 H131       35.6324   27.8694    3.9877 H         1 UNK         0.0545 
    132 H132       35.3900   25.8300    5.0027 H         1 UNK         0.3459 
    133 H133       34.0350   25.4419    6.0291 H         1 UNK         0.3459 
    134 H134       34.3204   28.7748    1.9374 H         1 UNK         0.0616 
    135 H135       32.9326   27.9247    2.5516 H         1 UNK         0.0616 
    136 H136       33.4747   25.3462   -0.0319 H         1 UNK         0.0634 
    137 H137       32.4794   26.5539    0.7299 H         1 UNK         0.0634 
@<TRIPOS>BOND
     1    1    2 1    
     2    1   72 1    
     3    1   73 1    
     4    1   74 1    
     5    2    3 2    
     6    2    4 am   BACKBONE|DICT|INTERRES
     7    4    5 1    
     8    4   75 1    
     9    5    6 1    
    10    5   35 1    
    11    5   76 1    
    12    6    7 1    
    13    6   77 1    
    14    6   78 1    
    15    7    8 1    
    16    8    9 1    
    17    8   79 1    
    18    8   80 1    
    19    9   10 ar   
    20    9   14 ar   
    21   10   11 ar   
    22   10   81 1    
    23   11   12 ar   
    24   11   71 1    
    25   12   13 ar   
    26   12   82 1    
    27   13   14 ar   
    28   13   15 1    
    29   14   83 1    
    30   15   16 1    
    31   15   84 1    
    32   15   85 1    
    33   16   17 1    
    34   17   18 1    
    35   17   86 1    
    36   17   87 1    
    37   18   19 1    
    38   18   37 1    
    39   18   88 1    
    40   19   20 am   BACKBONE|DICT|INTERRES
    41   19   89 1    
    42   20   21 2    
    43   20   22 1    
    44   22   23 1    
    45   22   24 1    
    46   22   90 1    
    47   23   91 1    
    48   23   92 1    
    49   23   93 1    
    50   24   25 am   BACKBONE|DICT|INTERRES
    51   24   94 1    
    52   25   26 2    
    53   25   27 1    
    54   27   28 1    
    55   27   29 1    
    56   27   95 1    
    57   28   96 1    
    58   28   97 1    
    59   28   98 1    
    60   29   30 am   BACKBONE|DICT|INTERRES
    61   29   99 1    
    62   30   31 2    
    63   30   32 1    
    64   32   33 1    
    65   32   34 1    
    66   32  100 1    
    67   33  101 1    
    68   33  102 1    
    69   33  103 1    
    70   34   35 am   BACKBONE|DICT|INTERRES
    71   34  104 1    
    72   35   36 2    
    73   37   38 2    
    74   37   39 am   BACKBONE|DICT|INTERRES
    75   39   40 1    
    76   39  105 1    
    77   40   41 1    
    78   40   42 1    
    79   40  106 1    
    80   41  107 1    
    81   41  108 1    
    82   41  109 1    
    83   42   43 2    
    84   42   44 am   BACKBONE|DICT|INTERRES
    85   44   45 1    
    86   44  110 1    
    87   45   46 1    
    88   45   47 1    
    89   45  111 1    
    90   46  112 1    
    91   46  113 1    
    92   46  114 1    
    93   47   48 2    
    94   47   49 am   BACKBONE|DICT|INTERRES
    95   49   50 1    
    96   49  115 1    
    97   50   51 1    
    98   50   52 1    
    99   50  116 1    
   100   51  117 1    
   101   51  118 1    
   102   51  119 1    
   103   52   53 2    
   104   52   54 am   BACKBONE|DICT|INTERRES
   105   54   55 1    
   106   54  120 1    
   107   55   56 1    
   108   55   57 1    
   109   55  121 1    
   110   56  122 1    
   111   56  123 1    
   112   56  124 1    
   113   57   58 2    
   114   57   59 am   BACKBONE|DICT|INTERRES
   115   59   60 1    
   116   59  125 1    
   117   60   61 1    
   118   60   62 1    
   119   60  126 1    
   120   61  127 1    
   121   61  128 1    
   122   61  129 1    
   123   62   63 2    
   124   62   64 am   BACKBONE|DICT|INTERRES
   125   64   65 1    
   126   64  130 1    
   127   65   66 1    
   128   65   69 1    
   129   65  131 1    
   130   66   67 am   BACKBONE|DICT|INTERRES
   131   66   68 2    
   132   67  132 1    
   133   67  133 1    
   134   69   70 1    
   135   69  134 1    
   136   69  135 1    
   137   70   71 1    
   138   71  136 1    
   139   71  137 1    
@<TRIPOS>SUBSTRUCTURE
     1 UNK         1 GROUP             0       ****    0 ROOT    
