@<TRIPOS>MOLECULE
3R136
137   139    1
SMALL
USER_CHARGES


@<TRIPOS>ATOM
      1 CA         27.3949   22.0932    3.6126 C.3       0 UNK        -0.1979 
      2 C          27.9525   21.7904    2.2298 C.2       0 UNK         0.4864 
      3 O          27.5073   20.8421    1.5828 O.2       0 UNK        -0.5359 
      4 N          28.9224   22.5937    1.7727 N.am      1 UNK        -0.4318 
      5 CA         29.6130   22.4538    0.4821 C.3       1 UNK         0.0824 
      6 C6         30.8756   23.3534    0.4251 C.3       12 UNK        -0.0944 
      7 S7         32.1458   22.8254    1.6246 S.3       12 UNK        -0.2672 
      8 C8         33.0914   24.3598    1.8892 C.3       12 UNK         0.0333 
      9 C9         32.5792   25.1326    3.0955 C.ar      12 UNK        -0.0807 
     10 C10        33.0293   24.8046    4.3780 C.ar      12 UNK        -0.0894 
     11 C11        32.5846   25.5257    5.4906 C.ar      12 UNK        -0.0804 
     12 C12        31.6440   26.5450    5.3220 C.ar      12 UNK        -0.0824 
     13 C13        31.1830   26.8784    4.0469 C.ar      12 UNK        -0.0762 
     14 C14        31.6768   26.1870    2.9343 C.ar      12 UNK        -0.0782 
     15 C15        30.1734   28.0043    3.8748 C.3       12 UNK         0.0230 
     16 S16        28.4462   27.4650    4.0956 S.3       12 UNK        -0.2608 
     17 C17        28.2385   26.1515    2.8415 C.3       12 UNK        -0.0989 
     18 CA         27.4852   26.5287    1.5402 C.3       5 UNK         0.0716 
     19 N          26.0591   26.8049    1.7417 N.am      5 UNK        -0.4135 
     20 C          25.4595   27.9746    2.0170 C.2       4 UNK         0.5031 
     21 O          26.0654   29.0183    2.2670 O.2       4 UNK        -0.5229 
     22 CA         23.9174   27.9899    1.8943 C.3       4 UNK         0.0329 
     23 CB         23.3703   29.3969    1.5722 C.3       4 UNK        -0.2001 
     24 N          23.4004   27.0042    0.9268 N.am      4 UNK        -0.4303 
     25 C          23.7563   26.8832   -0.3624 C.2       3 UNK         0.5044 
     26 O          24.5279   27.6511   -0.9443 O.2       3 UNK        -0.5152 
     27 CA         23.2524   25.6284   -1.0978 C.3       3 UNK         0.0319 
     28 CB         22.3214   26.0108   -2.2593 C.3       3 UNK        -0.2001 
     29 N          24.3838   24.8488   -1.6128 N.am      3 UNK        -0.4354 
     30 C          25.3481   24.3129   -0.8504 C.2       2 UNK         0.4964 
     31 O          25.3058   24.2913    0.3848 O.2       2 UNK        -0.5047 
     32 CA         26.5882   23.7658   -1.5764 C.3       2 UNK         0.0288 
     33 CB         27.1975   24.8292   -2.5185 C.3       2 UNK        -0.2113 
     34 N          27.5629   23.3645   -0.5622 N.am      2 UNK        -0.4145 
     35 C          28.7124   22.7050   -0.7522 C.2       1 UNK         0.5006 
     36 O          29.0876   22.3011   -1.8544 O.2       1 UNK        -0.5103 
     37 C          28.2118   27.4973    0.5752 C.2       5 UNK         0.5055 
     38 O          29.4174   27.7077    0.7059 O.2       5 UNK        -0.5220 
     39 N          27.4617   28.0720   -0.3821 N.am      6 UNK        -0.4450 
     40 CA         27.8722   29.1144   -1.3322 C.3       6 UNK         0.0367 
     41 CB         28.9433   28.5847   -2.3103 C.3       6 UNK        -0.1929 
     42 C          28.2950   30.4415   -0.6637 C.2       6 UNK         0.5070 
     43 O          28.9390   31.2629   -1.3174 O.2       6 UNK        -0.5237 
     44 N          27.9302   30.6336    0.6158 N.am      7 UNK        -0.4739 
     45 CA         28.2456   31.7809    1.4762 C.3       7 UNK         0.0276 
     46 CB         27.4708   33.0314    1.0093 C.3       7 UNK        -0.1927 
     47 C          29.7578   32.0451    1.6490 C.2       7 UNK         0.5013 
     48 O          30.1540   33.1955    1.8441 O.2       7 UNK        -0.5193 
     49 N          30.5788   30.9838    1.5782 N.am      8 UNK        -0.4253 
     50 CA         32.0443   31.0558    1.6596 C.3       8 UNK         0.0242 
     51 CB         32.6522   29.6942    1.2831 C.3       8 UNK        -0.2000 
     52 C          32.5783   31.5241    3.0262 C.2       8 UNK         0.4948 
     53 O          33.6425   32.1423    3.0718 O.2       8 UNK        -0.5275 
     54 N          31.8344   31.2221    4.1019 N.am      9 UNK        -0.4246 
     55 CA         32.0141   31.6096    5.5114 C.3       9 UNK         0.0261 
     56 CB         31.8572   33.1332    5.6802 C.3       9 UNK        -0.1959 
     57 C          33.3044   31.1194    6.1990 C.2       9 UNK         0.5033 
     58 O          33.2304   30.6058    7.3152 O.2       9 UNK        -0.5390 
     59 N          34.4560   31.2977    5.5441 N.am      10 UNK        -0.4215 
     60 CA         35.7939   30.9874    6.0580 C.3       10 UNK         0.0240 
     61 CB         36.8130   31.8826    5.3317 C.3       10 UNK        -0.1982 
     62 C          36.1899   29.5040    5.9303 C.2       10 UNK         0.4970 
     63 O          37.2513   29.1296    6.4306 O.2       10 UNK        -0.4916 
     64 N          35.3613   28.7023    5.2490 N.am      11 UNK        -0.4279 
     65 CA         35.5693   27.2754    4.9441 C.3       11 UNK         0.1003 
     66 C          36.6988   26.9878    3.9082 C.2       11 UNK         0.5709 
     67 N          37.1978   27.9789    3.1785 N.am      11 UNK        -0.7358 
     68 O          37.1095   25.8429    3.7333 O.2       11 UNK        -0.4999 
     69 C69        35.6712   26.3615    6.2057 C.3       12 UNK        -0.0954 
     70 S70        34.2955   26.5638    7.3907 S.3       12 UNK        -0.2268 
     71 C71        33.1529   25.2422    6.8714 C.3       12 UNK         0.0203 
     72 H72        27.4171   21.1961    4.2308 H         1 UNK         0.0888 
     73 H73        27.9668   22.8676    4.1236 H         1 UNK         0.0888 
     74 H74        26.3608   22.4281    3.5340 H         1 UNK         0.0888 
     75 H75        29.2885   23.3143    2.3772 H         1 UNK         0.3017 
     76 H76        29.9374   21.4137    0.4032 H         1 UNK         0.0873 
     77 H77        30.6104   24.3976    0.6020 H         1 UNK         0.0745 
     78 H78        31.3363   23.3181   -0.5645 H         1 UNK         0.0745 
     79 H79        33.0651   24.9779    0.9903 H         1 UNK         0.0705 
     80 H80        34.1399   24.1006    2.0446 H         1 UNK         0.0705 
     81 H81        33.7491   24.0073    4.5047 H         1 UNK         0.1334 
     82 H82        31.2913   27.0961    6.1834 H         1 UNK         0.1417 
     83 H83        31.3409   26.4569    1.9421 H         1 UNK         0.1562 
     84 H84        30.2862   28.4757    2.9023 H         1 UNK         0.0748 
     85 H85        30.3774   28.7834    4.6095 H         1 UNK         0.0748 
     86 H86        27.6886   25.3492    3.3351 H         1 UNK         0.0940 
     87 H87        29.1939   25.7023    2.5901 H         1 UNK         0.0940 
     88 H88        27.4805   25.6089    0.9607 H         1 UNK         0.0703 
     89 H89        25.4569   26.0193    1.5202 H         1 UNK         0.3081 
     90 H90        23.5331   27.6978    2.8726 H         1 UNK         0.0719 
     91 H91        22.2828   29.3934    1.5009 H         1 UNK         0.0809 
     92 H92        23.7672   29.7792    0.6310 H         1 UNK         0.0809 
     93 H93        23.6398   30.1109    2.3516 H         1 UNK         0.0809 
     94 H94        22.7819   26.3035    1.3134 H         1 UNK         0.2990 
     95 H95        22.6959   24.9980   -0.4010 H         1 UNK         0.0690 
     96 H96        21.9355   25.1267   -2.7672 H         1 UNK         0.0788 
     97 H97        22.8315   26.6285   -3.0000 H         1 UNK         0.0788 
     98 H98        21.4620   26.5779   -1.8991 H         1 UNK         0.0788 
     99 H99        24.5049   24.8483   -2.6152 H         1 UNK         0.2993 
    100 H100       26.2905   22.8847   -2.1482 H         1 UNK         0.0949 
    101 H101       27.4862   25.7250   -1.9705 H         1 UNK         0.0767 
    102 H102       28.0833   24.4573   -3.0328 H         1 UNK         0.0767 
    103 H103       26.4953   25.1326   -3.2954 H         1 UNK         0.0767 
    104 H104       27.2650   23.5691    0.3832 H         1 UNK         0.3013 
    105 H105       26.4713   27.8443   -0.4177 H         1 UNK         0.3121 
    106 H106       26.9810   29.3487   -1.9164 H         1 UNK         0.0774 
    107 H107       29.1481   29.3112   -3.0974 H         1 UNK         0.0815 
    108 H108       29.8887   28.3808   -1.8071 H         1 UNK         0.0815 
    109 H109       28.6182   27.6683   -2.8011 H         1 UNK         0.0815 
    110 H110       27.3756   29.9093    1.0660 H         1 UNK         0.2987 
    111 H111       27.8757   31.5186    2.4688 H         1 UNK         0.0949 
    112 H112       27.8254   33.3881    0.0417 H         1 UNK         0.0806 
    113 H113       26.4039   32.8264    0.9215 H         1 UNK         0.0806 
    114 H114       27.5828   33.8517    1.7194 H         1 UNK         0.0806 
    115 H115       30.1718   30.0828    1.3626 H         1 UNK         0.3010 
    116 H116       32.3724   31.7873    0.9179 H         1 UNK         0.0829 
    117 H117       32.2920   29.3501    0.3131 H         1 UNK         0.0813 
    118 H118       33.7392   29.7606    1.2186 H         1 UNK         0.0813 
    119 H119       32.4218   28.9247    2.0188 H         1 UNK         0.0813 
    120 H120       30.9869   30.7071    3.9167 H         1 UNK         0.3038 
    121 H121       31.1872   31.1400    6.0469 H         1 UNK         0.0769 
    122 H122       32.6401   33.6842    5.1579 H         1 UNK         0.0811 
    123 H123       30.8963   33.4767    5.2967 H         1 UNK         0.0811 
    124 H124       31.9068   33.4174    6.7322 H         1 UNK         0.0811 
    125 H125       34.3932   31.7132    4.6136 H         1 UNK         0.3204 
    126 H126       35.8226   31.2341    7.1214 H         1 UNK         0.0748 
    127 H127       37.8236   31.7155    5.7071 H         1 UNK         0.0771 
    128 H128       36.8264   31.6897    4.2582 H         1 UNK         0.0771 
    129 H129       36.5868   32.9389    5.4787 H         1 UNK         0.0771 
    130 H130       34.5151   29.1068    4.8793 H         1 UNK         0.2980 
    131 H131       34.6646   26.9907    4.4115 H         1 UNK         0.0545 
    132 H132       36.8682   28.9222    3.2997 H         1 UNK         0.3459 
    133 H133       37.9193   27.7778    2.5043 H         1 UNK         0.3459 
    134 H134       35.7151   25.3110    5.9140 H         1 UNK         0.0616 
    135 H135       36.6021   26.5570    6.7395 H         1 UNK         0.0616 
    136 H136       32.3375   25.1742    7.5928 H         1 UNK         0.0634 
    137 H137       33.6688   24.2811    6.8961 H         1 UNK         0.0634 
@<TRIPOS>BOND
     1    1    2 1    
     2    1   72 1    
     3    1   73 1    
     4    1   74 1    
     5    2    3 2    
     6    2    4 am   BACKBONE|DICT|INTERRES
     7    4    5 1    
     8    4   75 1    
     9    5    6 1    
    10    5   35 1    
    11    5   76 1    
    12    6    7 1    
    13    6   77 1    
    14    6   78 1    
    15    7    8 1    
    16    8    9 1    
    17    8   79 1    
    18    8   80 1    
    19    9   10 ar   
    20    9   14 ar   
    21   10   11 ar   
    22   10   81 1    
    23   11   12 ar   
    24   11   71 1    
    25   12   13 ar   
    26   12   82 1    
    27   13   14 ar   
    28   13   15 1    
    29   14   83 1    
    30   15   16 1    
    31   15   84 1    
    32   15   85 1    
    33   16   17 1    
    34   17   18 1    
    35   17   86 1    
    36   17   87 1    
    37   18   19 1    
    38   18   37 1    
    39   18   88 1    
    40   19   20 am   BACKBONE|DICT|INTERRES
    41   19   89 1    
    42   20   21 2    
    43   20   22 1    
    44   22   23 1    
    45   22   24 1    
    46   22   90 1    
    47   23   91 1    
    48   23   92 1    
    49   23   93 1    
    50   24   25 am   BACKBONE|DICT|INTERRES
    51   24   94 1    
    52   25   26 2    
    53   25   27 1    
    54   27   28 1    
    55   27   29 1    
    56   27   95 1    
    57   28   96 1    
    58   28   97 1    
    59   28   98 1    
    60   29   30 am   BACKBONE|DICT|INTERRES
    61   29   99 1    
    62   30   31 2    
    63   30   32 1    
    64   32   33 1    
    65   32   34 1    
    66   32  100 1    
    67   33  101 1    
    68   33  102 1    
    69   33  103 1    
    70   34   35 am   BACKBONE|DICT|INTERRES
    71   34  104 1    
    72   35   36 2    
    73   37   38 2    
    74   37   39 am   BACKBONE|DICT|INTERRES
    75   39   40 1    
    76   39  105 1    
    77   40   41 1    
    78   40   42 1    
    79   40  106 1    
    80   41  107 1    
    81   41  108 1    
    82   41  109 1    
    83   42   43 2    
    84   42   44 am   BACKBONE|DICT|INTERRES
    85   44   45 1    
    86   44  110 1    
    87   45   46 1    
    88   45   47 1    
    89   45  111 1    
    90   46  112 1    
    91   46  113 1    
    92   46  114 1    
    93   47   48 2    
    94   47   49 am   BACKBONE|DICT|INTERRES
    95   49   50 1    
    96   49  115 1    
    97   50   51 1    
    98   50   52 1    
    99   50  116 1    
   100   51  117 1    
   101   51  118 1    
   102   51  119 1    
   103   52   53 2    
   104   52   54 am   BACKBONE|DICT|INTERRES
   105   54   55 1    
   106   54  120 1    
   107   55   56 1    
   108   55   57 1    
   109   55  121 1    
   110   56  122 1    
   111   56  123 1    
   112   56  124 1    
   113   57   58 2    
   114   57   59 am   BACKBONE|DICT|INTERRES
   115   59   60 1    
   116   59  125 1    
   117   60   61 1    
   118   60   62 1    
   119   60  126 1    
   120   61  127 1    
   121   61  128 1    
   122   61  129 1    
   123   62   63 2    
   124   62   64 am   BACKBONE|DICT|INTERRES
   125   64   65 1    
   126   64  130 1    
   127   65   66 1    
   128   65   69 1    
   129   65  131 1    
   130   66   67 am   BACKBONE|DICT|INTERRES
   131   66   68 2    
   132   67  132 1    
   133   67  133 1    
   134   69   70 1    
   135   69  134 1    
   136   69  135 1    
   137   70   71 1    
   138   71  136 1    
   139   71  137 1    
@<TRIPOS>SUBSTRUCTURE
     1 UNK         1 GROUP             0       ****    0 ROOT    
