@<TRIPOS>MOLECULE
3R136
137   139    1
SMALL
USER_CHARGES


@<TRIPOS>ATOM
      1 CA         31.6744   26.2528   -3.9135 C.3       0 UNK        -0.1979 
      2 C          30.8449   24.9813   -4.0733 C.2       0 UNK         0.4864 
      3 O          30.9905   24.2910   -5.0815 O.2       0 UNK        -0.5359 
      4 N          29.9678   24.6281   -3.1258 N.am      1 UNK        -0.4318 
      5 CA         29.6100   25.3713   -1.9139 C.3       1 UNK         0.0824 
      6 C6         30.1119   24.6815   -0.6172 C.3       12 UNK        -0.0944 
      7 S7         31.9234   24.5044   -0.5698 S.3       12 UNK        -0.2672 
      8 C8         32.1173   22.9978    0.4355 C.3       12 UNK         0.0333 
      9 C9         32.0713   23.2924    1.9290 C.ar      12 UNK        -0.0807 
     10 C10        33.0586   24.1003    2.5008 C.ar      12 UNK        -0.0894 
     11 C11        33.0782   24.3366    3.8766 C.ar      12 UNK        -0.0804 
     12 C12        32.1053   23.7466    4.6867 C.ar      12 UNK        -0.0824 
     13 C13        31.0988   22.9507    4.1293 C.ar      12 UNK        -0.0762 
     14 C14        31.0849   22.7274    2.7470 C.ar      12 UNK        -0.0782 
     15 C15        30.0560   22.3061    5.0371 C.3       12 UNK         0.0230 
     16 S16        28.4061   23.0771    4.9175 S.3       12 UNK        -0.2608 
     17 C17        28.7493   24.8406    5.2439 C.3       12 UNK        -0.0989 
     18 CA         28.3399   25.6965    4.0151 C.3       5 UNK         0.0716 
     19 N          26.8921   25.8854    3.8673 N.am      5 UNK        -0.4135 
     20 C          26.0589   26.4978    4.7257 C.2       4 UNK         0.5031 
     21 O          26.4003   26.9141    5.8332 O.2       4 UNK        -0.5229 
     22 CA         24.5951   26.7226    4.2870 C.3       4 UNK         0.0329 
     23 CB         24.2794   28.2275    4.2205 C.3       4 UNK        -0.2001 
     24 N          24.2622   26.1248    2.9936 N.am      4 UNK        -0.4303 
     25 C          24.0528   24.8213    2.7667 C.2       3 UNK         0.5044 
     26 O          24.0093   23.9698    3.6545 O.2       3 UNK        -0.5152 
     27 CA         23.9000   24.3896    1.2938 C.3       3 UNK         0.0319 
     28 CB         22.4177   24.1694    0.9510 C.3       3 UNK        -0.2001 
     29 N          24.4873   25.3204    0.3173 N.am      3 UNK        -0.4354 
     30 C          25.7805   25.6697    0.2615 C.2       2 UNK         0.4964 
     31 O          26.6305   25.2859    1.0697 O.2       2 UNK        -0.5047 
     32 CA         26.1740   26.6766   -0.8310 C.3       2 UNK         0.0288 
     33 CB         25.9446   28.1134   -0.3332 C.3       2 UNK        -0.2113 
     34 N          27.5828   26.5215   -1.1893 N.am      2 UNK        -0.4145 
     35 C          28.0782   25.4859   -1.8749 C.2       1 UNK         0.5006 
     36 O          27.3802   24.6263   -2.4232 O.2       1 UNK        -0.5103 
     37 C          29.0493   27.0582    3.9220 C.2       5 UNK         0.5055 
     38 O          29.5967   27.5662    4.9042 O.2       5 UNK        -0.5220 
     39 N          28.9930   27.6333    2.7174 N.am      6 UNK        -0.4450 
     40 CA         29.6599   28.8716    2.3494 C.3       6 UNK         0.0367 
     41 CB         28.6922   30.0549    2.5285 C.3       6 UNK        -0.1929 
     42 C          30.1248   28.7614    0.8977 C.2       6 UNK         0.5070 
     43 O          29.4782   28.0774    0.1008 O.2       6 UNK        -0.5237 
     44 N          31.2169   29.4573    0.5843 N.am      7 UNK        -0.4739 
     45 CA         31.7856   29.5831   -0.7538 C.3       7 UNK         0.0276 
     46 CB         32.9510   28.5848   -0.9139 C.3       7 UNK        -0.1927 
     47 C          32.1631   31.0585   -0.9429 C.2       7 UNK         0.5013 
     48 O          31.2633   31.8977   -1.0058 O.2       7 UNK        -0.5193 
     49 N          33.4676   31.3681   -0.9812 N.am      8 UNK        -0.4253 
     50 CA         33.9968   32.7393   -0.9712 C.3       8 UNK         0.0242 
     51 CB         35.4942   32.7075   -1.3185 C.3       8 UNK        -0.2000 
     52 C          33.7687   33.4658    0.3709 C.2       8 UNK         0.4948 
     53 O          33.7216   34.6962    0.3966 O.2       8 UNK        -0.5275 
     54 N          33.6160   32.6898    1.4482 N.am      9 UNK        -0.4246 
     55 CA         33.2131   33.1050    2.7853 C.3       9 UNK         0.0261 
     56 CB         34.4637   33.4015    3.6322 C.3       9 UNK        -0.1959 
     57 C          32.3843   31.9608    3.3862 C.2       9 UNK         0.5033 
     58 O          32.3808   30.8567    2.8298 O.2       9 UNK        -0.5390 
     59 N          31.6994   32.2364    4.5019 N.am      10 UNK        -0.4215 
     60 CA         30.9624   31.2383    5.2789 C.3       10 UNK         0.0240 
     61 CB         29.9137   31.9422    6.1551 C.3       10 UNK        -0.1982 
     62 C          31.9224   30.4046    6.1391 C.2       10 UNK         0.4970 
     63 O          32.8117   30.9787    6.7726 O.2       10 UNK        -0.4916 
     64 N          31.7096   29.0849    6.1700 N.am      11 UNK        -0.4279 
     65 CA         32.4859   28.1416    6.9906 C.3       11 UNK         0.1003 
     66 C          31.9238   27.9588    8.4302 C.2       11 UNK         0.5709 
     67 N          30.7636   28.5080    8.7715 N.am      11 UNK        -0.7358 
     68 O          32.5631   27.3186    9.2617 O.2       11 UNK        -0.4999 
     69 C69        32.6568   26.7773    6.2760 C.3       12 UNK        -0.0954 
     70 S70        33.5856   26.9250    4.7128 S.3       12 UNK        -0.2268 
     71 C71        34.1622   25.2148    4.4832 C.3       12 UNK         0.0203 
     72 H72        31.0403   27.1371   -3.9688 H         1 UNK         0.0888 
     73 H73        32.2055   26.2574   -2.9629 H         1 UNK         0.0888 
     74 H74        32.4190   26.3263   -4.7059 H         1 UNK         0.0888 
     75 H75        29.3820   23.8194   -3.2856 H         1 UNK         0.3017 
     76 H76        30.0088   26.3859   -1.9480 H         1 UNK         0.0873 
     77 H77        29.6525   23.6969   -0.5110 H         1 UNK         0.0745 
     78 H78        29.8144   25.2524    0.2649 H         1 UNK         0.0745 
     79 H79        33.0847   22.5513    0.2014 H         1 UNK         0.0705 
     80 H80        31.3683   22.2572    0.1518 H         1 UNK         0.0705 
     81 H81        33.8182   24.5413    1.8695 H         1 UNK         0.1334 
     82 H82        32.1299   23.9130    5.7547 H         1 UNK         0.1417 
     83 H83        30.3171   22.0995    2.3155 H         1 UNK         0.1562 
     84 H84        30.3812   22.3390    6.0782 H         1 UNK         0.0748 
     85 H85        29.9664   21.2485    4.7849 H         1 UNK         0.0748 
     86 H86        29.8064   24.9666    5.4714 H         1 UNK         0.0940 
     87 H87        28.2251   25.1492    6.1483 H         1 UNK         0.0940 
     88 H88        28.6621   25.1525    3.1245 H         1 UNK         0.0703 
     89 H89        26.5279   25.5963    2.9644 H         1 UNK         0.3081 
     90 H90        23.9569   26.2720    5.0502 H         1 UNK         0.0719 
     91 H91        24.9000   28.7380    3.4826 H         1 UNK         0.0809 
     92 H92        23.2348   28.4042    3.9632 H         1 UNK         0.0809 
     93 H93        24.4574   28.7089    5.1832 H         1 UNK         0.0809 
     94 H94        24.2636   26.7446    2.1971 H         1 UNK         0.2990 
     95 H95        24.4208   23.4357    1.1866 H         1 UNK         0.0690 
     96 H96        22.2976   23.7641   -0.0540 H         1 UNK         0.0788 
     97 H97        21.8471   25.0971    1.0112 H         1 UNK         0.0788 
     98 H98        21.9583   23.4592    1.6403 H         1 UNK         0.0788 
     99 H99        23.8538   25.7011   -0.3718 H         1 UNK         0.2993 
    100 H100       25.5641   26.4996   -1.7197 H         1 UNK         0.0949 
    101 H101       26.2381   28.8447   -1.0867 H         1 UNK         0.0767 
    102 H102       24.8927   28.2895   -0.1052 H         1 UNK         0.0767 
    103 H103       26.5159   28.3219    0.5724 H         1 UNK         0.0767 
    104 H104       28.2404   27.1581   -0.7372 H         1 UNK         0.3013 
    105 H105       28.5611   27.1432    1.9440 H         1 UNK         0.3121 
    106 H106       30.5424   29.0017    2.9775 H         1 UNK         0.0774 
    107 H107       29.1926   31.0009    2.3170 H         1 UNK         0.0815 
    108 H108       27.8364   29.9810    1.8570 H         1 UNK         0.0815 
    109 H109       28.3099   30.1082    3.5479 H         1 UNK         0.0815 
    110 H110       31.6607   30.0086    1.3179 H         1 UNK         0.2987 
    111 H111       31.0284   29.3561   -1.5080 H         1 UNK         0.0949 
    112 H112       33.4144   28.6692   -1.8978 H         1 UNK         0.0806 
    113 H113       33.7249   28.7281   -0.1588 H         1 UNK         0.0806 
    114 H114       32.5939   27.5594   -0.8173 H         1 UNK         0.0806 
    115 H115       34.1426   30.6180   -0.9376 H         1 UNK         0.3010 
    116 H116       33.4771   33.3099   -1.7441 H         1 UNK         0.0829 
    117 H117       35.6658   32.2619   -2.2986 H         1 UNK         0.0813 
    118 H118       35.9088   33.7163   -1.3465 H         1 UNK         0.0813 
    119 H119       36.0683   32.1404   -0.5846 H         1 UNK         0.0813 
    120 H120       33.6156   31.6848    1.3289 H         1 UNK         0.3038 
    121 H121       32.5827   33.9945    2.7215 H         1 UNK         0.0769 
    122 H122       34.1936   33.7277    4.6371 H         1 UNK         0.0811 
    123 H123       35.0642   34.1945    3.1860 H         1 UNK         0.0811 
    124 H124       35.0977   32.5197    3.7344 H         1 UNK         0.0811 
    125 H125       31.7883   33.1532    4.9162 H         1 UNK         0.3204 
    126 H126       30.4375   30.5733    4.5965 H         1 UNK         0.0748 
    127 H127       29.3285   31.2164    6.7214 H         1 UNK         0.0771 
    128 H128       30.3749   32.6217    6.8731 H         1 UNK         0.0771 
    129 H129       29.2134   32.5175    5.5490 H         1 UNK         0.0771 
    130 H130       30.9439   28.6705    5.6423 H         1 UNK         0.2980 
    131 H131       33.4887   28.5507    7.1283 H         1 UNK         0.0545 
    132 H132       30.4167   28.3863    9.7097 H         1 UNK         0.3459 
    133 H133       30.2254   29.0244    8.0953 H         1 UNK         0.3459 
    134 H134       33.1888   26.0760    6.9213 H         1 UNK         0.0616 
    135 H135       31.6847   26.3305    6.0681 H         1 UNK         0.0616 
    136 H136       34.5033   24.7991    5.4324 H         1 UNK         0.0634 
    137 H137       35.0368   25.2308    3.8310 H         1 UNK         0.0634 
@<TRIPOS>BOND
     1    1    2 1    
     2    1   72 1    
     3    1   73 1    
     4    1   74 1    
     5    2    3 2    
     6    2    4 am   BACKBONE|DICT|INTERRES
     7    4    5 1    
     8    4   75 1    
     9    5    6 1    
    10    5   35 1    
    11    5   76 1    
    12    6    7 1    
    13    6   77 1    
    14    6   78 1    
    15    7    8 1    
    16    8    9 1    
    17    8   79 1    
    18    8   80 1    
    19    9   10 ar   
    20    9   14 ar   
    21   10   11 ar   
    22   10   81 1    
    23   11   12 ar   
    24   11   71 1    
    25   12   13 ar   
    26   12   82 1    
    27   13   14 ar   
    28   13   15 1    
    29   14   83 1    
    30   15   16 1    
    31   15   84 1    
    32   15   85 1    
    33   16   17 1    
    34   17   18 1    
    35   17   86 1    
    36   17   87 1    
    37   18   19 1    
    38   18   37 1    
    39   18   88 1    
    40   19   20 am   BACKBONE|DICT|INTERRES
    41   19   89 1    
    42   20   21 2    
    43   20   22 1    
    44   22   23 1    
    45   22   24 1    
    46   22   90 1    
    47   23   91 1    
    48   23   92 1    
    49   23   93 1    
    50   24   25 am   BACKBONE|DICT|INTERRES
    51   24   94 1    
    52   25   26 2    
    53   25   27 1    
    54   27   28 1    
    55   27   29 1    
    56   27   95 1    
    57   28   96 1    
    58   28   97 1    
    59   28   98 1    
    60   29   30 am   BACKBONE|DICT|INTERRES
    61   29   99 1    
    62   30   31 2    
    63   30   32 1    
    64   32   33 1    
    65   32   34 1    
    66   32  100 1    
    67   33  101 1    
    68   33  102 1    
    69   33  103 1    
    70   34   35 am   BACKBONE|DICT|INTERRES
    71   34  104 1    
    72   35   36 2    
    73   37   38 2    
    74   37   39 am   BACKBONE|DICT|INTERRES
    75   39   40 1    
    76   39  105 1    
    77   40   41 1    
    78   40   42 1    
    79   40  106 1    
    80   41  107 1    
    81   41  108 1    
    82   41  109 1    
    83   42   43 2    
    84   42   44 am   BACKBONE|DICT|INTERRES
    85   44   45 1    
    86   44  110 1    
    87   45   46 1    
    88   45   47 1    
    89   45  111 1    
    90   46  112 1    
    91   46  113 1    
    92   46  114 1    
    93   47   48 2    
    94   47   49 am   BACKBONE|DICT|INTERRES
    95   49   50 1    
    96   49  115 1    
    97   50   51 1    
    98   50   52 1    
    99   50  116 1    
   100   51  117 1    
   101   51  118 1    
   102   51  119 1    
   103   52   53 2    
   104   52   54 am   BACKBONE|DICT|INTERRES
   105   54   55 1    
   106   54  120 1    
   107   55   56 1    
   108   55   57 1    
   109   55  121 1    
   110   56  122 1    
   111   56  123 1    
   112   56  124 1    
   113   57   58 2    
   114   57   59 am   BACKBONE|DICT|INTERRES
   115   59   60 1    
   116   59  125 1    
   117   60   61 1    
   118   60   62 1    
   119   60  126 1    
   120   61  127 1    
   121   61  128 1    
   122   61  129 1    
   123   62   63 2    
   124   62   64 am   BACKBONE|DICT|INTERRES
   125   64   65 1    
   126   64  130 1    
   127   65   66 1    
   128   65   69 1    
   129   65  131 1    
   130   66   67 am   BACKBONE|DICT|INTERRES
   131   66   68 2    
   132   67  132 1    
   133   67  133 1    
   134   69   70 1    
   135   69  134 1    
   136   69  135 1    
   137   70   71 1    
   138   71  136 1    
   139   71  137 1    
@<TRIPOS>SUBSTRUCTURE
     1 UNK         1 GROUP             0       ****    0 ROOT    
