@<TRIPOS>MOLECULE
3R136
137   139    1
SMALL
USER_CHARGES


@<TRIPOS>ATOM
      1 CA         26.7110   22.7578   -1.4152 C.3       0 UNK        -0.1979 
      2 C          27.9076   23.4735   -2.0244 C.2       0 UNK         0.4864 
      3 O          28.0732   23.4580   -3.2448 O.2       0 UNK        -0.5359 
      4 N          28.7425   24.0978   -1.1825 N.am      1 UNK        -0.4318 
      5 CA         29.9388   24.8540   -1.5822 C.3       1 UNK         0.0824 
      6 C6         30.8993   25.0776   -0.3881 C.3       12 UNK        -0.0944 
      7 S7         31.5521   23.4772    0.1973 S.3       12 UNK        -0.2672 
      8 C8         32.7007   23.9775    1.5159 C.3       12 UNK         0.0333 
      9 C9         31.9981   24.1767    2.8519 C.ar      12 UNK        -0.0807 
     10 C10        32.0123   25.4270    3.4763 C.ar      12 UNK        -0.0894 
     11 C11        31.4185   25.6013    4.7299 C.ar      12 UNK        -0.0804 
     12 C12        30.7914   24.5166    5.3503 C.ar      12 UNK        -0.0824 
     13 C13        30.7516   23.2644    4.7281 C.ar      12 UNK        -0.0762 
     14 C14        31.3679   23.0988    3.4842 C.ar      12 UNK        -0.0782 
     15 C15        30.0385   22.0939    5.3960 C.3       12 UNK         0.0230 
     16 S16        28.3599   21.8298    4.7251 S.3       12 UNK        -0.2608 
     17 C17        27.5529   23.4104    5.1461 C.3       12 UNK        -0.0989 
     18 CA         27.5712   24.3767    3.9267 C.3       5 UNK         0.0716 
     19 N          26.5239   24.0929    2.9422 N.am      5 UNK        -0.4135 
     20 C          25.2067   24.2899    3.0794 C.2       4 UNK         0.5031 
     21 O          24.6650   24.7021    4.1068 O.2       4 UNK        -0.5229 
     22 CA         24.3575   24.0090    1.8245 C.3       4 UNK         0.0329 
     23 CB         22.9679   23.4537    2.1853 C.3       4 UNK        -0.2001 
     24 N          24.1932   25.2093    0.9995 N.am      4 UNK        -0.4303 
     25 C          25.1811   25.8690    0.3808 C.2       3 UNK         0.5044 
     26 O          26.3641   25.5062    0.4025 O.2       3 UNK        -0.5152 
     27 CA         24.7758   27.1312   -0.4020 C.3       3 UNK         0.0319 
     28 CB         24.1875   28.2115    0.5198 C.3       3 UNK        -0.2001 
     29 N          25.9714   27.6681   -1.0399 N.am      3 UNK        -0.4354 
     30 C          26.2304   27.6430   -2.3513 C.2       2 UNK         0.4964 
     31 O          25.3919   27.4329   -3.2280 O.2       2 UNK        -0.5047 
     32 CA         27.7087   27.7681   -2.7225 C.3       2 UNK         0.0288 
     33 CB         28.2612   29.1779   -2.4496 C.3       2 UNK        -0.2113 
     34 N          28.4195   26.7410   -1.9628 N.am      2 UNK        -0.4145 
     35 C          29.5805   26.1725   -2.3021 C.2       1 UNK         0.5006 
     36 O          30.3270   26.6081   -3.1804 O.2       1 UNK        -0.5103 
     37 C          27.6373   25.8735    4.3000 C.2       5 UNK         0.5055 
     38 O          27.7285   26.2222    5.4790 O.2       5 UNK        -0.5220 
     39 N          27.6346   26.7347    3.2759 N.am      6 UNK        -0.4450 
     40 CA         27.9440   28.1545    3.3875 C.3       6 UNK         0.0367 
     41 CB         26.7235   28.9472    3.8879 C.3       6 UNK        -0.1929 
     42 C          28.4267   28.6516    2.0235 C.2       6 UNK         0.5070 
     43 O          27.9221   28.1958    0.9947 O.2       6 UNK        -0.5237 
     44 N          29.3828   29.5821    2.0459 N.am      7 UNK        -0.4739 
     45 CA         29.9600   30.2649    0.8930 C.3       7 UNK         0.0276 
     46 CB         30.8490   29.3073    0.0743 C.3       7 UNK        -0.1927 
     47 C          30.7414   31.4808    1.4075 C.2       7 UNK         0.5013 
     48 O          31.0955   31.5163    2.5909 O.2       7 UNK        -0.5193 
     49 N          30.9714   32.4579    0.5193 N.am      8 UNK        -0.4253 
     50 CA         31.5816   33.7623    0.8021 C.3       8 UNK         0.0242 
     51 CB         31.6703   34.5709   -0.5044 C.3       8 UNK        -0.2000 
     52 C          32.9575   33.6552    1.4843 C.2       8 UNK         0.4948 
     53 O          33.9421   33.3254    0.8204 O.2       8 UNK        -0.5275 
     54 N          32.9750   33.9118    2.8014 N.am      9 UNK        -0.4246 
     55 CA         34.1210   33.8359    3.7183 C.3       9 UNK         0.0261 
     56 CB         35.1667   34.9188    3.3743 C.3       9 UNK        -0.1959 
     57 C          34.7478   32.4296    3.8423 C.2       9 UNK         0.5033 
     58 O          35.9060   32.3198    4.2519 O.2       9 UNK        -0.5390 
     59 N          33.9906   31.3784    3.5003 N.am      10 UNK        -0.4215 
     60 CA         34.4385   29.9884    3.5728 C.3       10 UNK         0.0240 
     61 CB         33.6322   29.1511    2.5703 C.3       10 UNK        -0.1982 
     62 C          34.2849   29.4198    4.9908 C.2       10 UNK         0.4970 
     63 O          33.4312   29.8835    5.7488 O.2       10 UNK        -0.4916 
     64 N          35.1024   28.4014    5.2850 N.am      11 UNK        -0.4279 
     65 CA         35.1283   27.5724    6.5042 C.3       11 UNK         0.1003 
     66 C          35.3289   28.3031    7.8690 C.2       11 UNK         0.5709 
     67 N          35.6959   29.5784    7.8922 N.am      11 UNK        -0.7358 
     68 O          35.2076   27.6899    8.9273 O.2       11 UNK        -0.4999 
     69 C69        34.0375   26.4590    6.5045 C.3       12 UNK        -0.0954 
     70 S70        32.3483   26.9637    6.9897 S.3       12 UNK        -0.2268 
     71 C71        31.4440   26.9659    5.4061 C.3       12 UNK         0.0203 
     72 H72        26.6274   21.7496   -1.8201 H         1 UNK         0.0888 
     73 H73        26.7958   22.6795   -0.3321 H         1 UNK         0.0888 
     74 H74        25.7938   23.2981   -1.6475 H         1 UNK         0.0888 
     75 H75        28.5485   24.0819   -0.1922 H         1 UNK         0.3017 
     76 H76        30.4691   24.2500   -2.3224 H         1 UNK         0.0873 
     77 H77        30.3970   25.5924    0.4337 H         1 UNK         0.0745 
     78 H78        31.7439   25.7038   -0.6828 H         1 UNK         0.0745 
     79 H79        33.4539   23.1973    1.6336 H         1 UNK         0.0705 
     80 H80        33.2392   24.8761    1.2109 H         1 UNK         0.0705 
     81 H81        32.4991   26.2618    2.9925 H         1 UNK         0.1334 
     82 H82        30.3250   24.6566    6.3160 H         1 UNK         0.1417 
     83 H83        31.3495   22.1309    3.0012 H         1 UNK         0.1562 
     84 H84        29.9769   22.2473    6.4746 H         1 UNK         0.0748 
     85 H85        30.6217   21.1828    5.2539 H         1 UNK         0.0748 
     86 H86        28.0647   23.8236    6.0158 H         1 UNK         0.0940 
     87 H87        26.5325   23.2173    5.4796 H         1 UNK         0.0940 
     88 H88        28.5064   24.2156    3.3886 H         1 UNK         0.0703 
     89 H89        26.8544   23.8209    2.0280 H         1 UNK         0.3081 
     90 H90        24.8684   23.2524    1.2256 H         1 UNK         0.0719 
     91 H91        22.3708   24.1798    2.7387 H         1 UNK         0.0809 
     92 H92        22.4094   23.1706    1.2929 H         1 UNK         0.0809 
     93 H93        23.0549   22.5621    2.8079 H         1 UNK         0.0809 
     94 H94        23.2569   25.5824    0.9404 H         1 UNK         0.2990 
     95 H95        24.0294   26.8441   -1.1455 H         1 UNK         0.0690 
     96 H96        23.8895   29.0909   -0.0512 H         1 UNK         0.0788 
     97 H97        24.9125   28.5347    1.2646 H         1 UNK         0.0788 
     98 H98        23.3024   27.8570    1.0488 H         1 UNK         0.0788 
     99 H99        26.7441   27.8404   -0.3961 H         1 UNK         0.2993 
    100 H100       27.8098   27.5481   -3.7877 H         1 UNK         0.0949 
    101 H101       27.7423   29.9201   -3.0572 H         1 UNK         0.0767 
    102 H102       28.1311   29.4640   -1.4076 H         1 UNK         0.0767 
    103 H103       29.3222   29.2454   -2.6899 H         1 UNK         0.0767 
    104 H104       27.8760   26.2972   -1.2305 H         1 UNK         0.3013 
    105 H105       27.5338   26.4007    2.3228 H         1 UNK         0.3121 
    106 H106       28.7620   28.2800    4.0999 H         1 UNK         0.0774 
    107 H107       26.9171   30.0205    3.8720 H         1 UNK         0.0815 
    108 H108       25.8420   28.7620    3.2777 H         1 UNK         0.0815 
    109 H109       26.4742   28.6801    4.9148 H         1 UNK         0.0815 
    110 H110       29.7330   29.9339    2.9299 H         1 UNK         0.2987 
    111 H111       29.1445   30.6360    0.2704 H         1 UNK         0.0949 
    112 H112       30.2607   28.5100   -0.3777 H         1 UNK         0.0806 
    113 H113       31.3561   29.8297   -0.7377 H         1 UNK         0.0806 
    114 H114       31.6112   28.8332    0.6884 H         1 UNK         0.0806 
    115 H115       30.6677   32.3149   -0.4329 H         1 UNK         0.3010 
    116 H116       30.9052   34.2962    1.4730 H         1 UNK         0.0829 
    117 H117       30.6834   34.7453   -0.9335 H         1 UNK         0.0813 
    118 H118       32.1221   35.5481   -0.3283 H         1 UNK         0.0813 
    119 H119       32.2781   34.0626   -1.2544 H         1 UNK         0.0813 
    120 H120       32.0905   34.1221    3.2442 H         1 UNK         0.3038 
    121 H121       33.7258   34.0672    4.7086 H         1 UNK         0.0769 
    122 H122       35.6598   34.7165    2.4231 H         1 UNK         0.0811 
    123 H123       35.9441   34.9715    4.1375 H         1 UNK         0.0811 
    124 H124       34.7104   35.9067    3.3127 H         1 UNK         0.0811 
    125 H125       33.0241   31.5341    3.2287 H         1 UNK         0.3204 
    126 H126       35.4917   29.9430    3.2862 H         1 UNK         0.0748 
    127 H127       33.7235   29.5546    1.5615 H         1 UNK         0.0771 
    128 H128       33.9897   28.1215    2.5396 H         1 UNK         0.0771 
    129 H129       32.5737   29.1255    2.8318 H         1 UNK         0.0771 
    130 H130       35.7812   28.1322    4.5878 H         1 UNK         0.2980 
    131 H131       36.0710   27.0346    6.3974 H         1 UNK         0.0545 
    132 H132       35.8413   30.0342    8.7790 H         1 UNK         0.3459 
    133 H133       35.7874   30.0978    7.0339 H         1 UNK         0.3459 
    134 H134       34.0101   25.9760    5.5277 H         1 UNK         0.0616 
    135 H135       34.3351   25.6699    7.1967 H         1 UNK         0.0616 
    136 H136       30.4185   27.2826    5.5978 H         1 UNK         0.0634 
    137 H137       31.8773   27.7187    4.7483 H         1 UNK         0.0634 
@<TRIPOS>BOND
     1    1    2 1    
     2    1   72 1    
     3    1   73 1    
     4    1   74 1    
     5    2    3 2    
     6    2    4 am   BACKBONE|DICT|INTERRES
     7    4    5 1    
     8    4   75 1    
     9    5    6 1    
    10    5   35 1    
    11    5   76 1    
    12    6    7 1    
    13    6   77 1    
    14    6   78 1    
    15    7    8 1    
    16    8    9 1    
    17    8   79 1    
    18    8   80 1    
    19    9   10 ar   
    20    9   14 ar   
    21   10   11 ar   
    22   10   81 1    
    23   11   12 ar   
    24   11   71 1    
    25   12   13 ar   
    26   12   82 1    
    27   13   14 ar   
    28   13   15 1    
    29   14   83 1    
    30   15   16 1    
    31   15   84 1    
    32   15   85 1    
    33   16   17 1    
    34   17   18 1    
    35   17   86 1    
    36   17   87 1    
    37   18   19 1    
    38   18   37 1    
    39   18   88 1    
    40   19   20 am   BACKBONE|DICT|INTERRES
    41   19   89 1    
    42   20   21 2    
    43   20   22 1    
    44   22   23 1    
    45   22   24 1    
    46   22   90 1    
    47   23   91 1    
    48   23   92 1    
    49   23   93 1    
    50   24   25 am   BACKBONE|DICT|INTERRES
    51   24   94 1    
    52   25   26 2    
    53   25   27 1    
    54   27   28 1    
    55   27   29 1    
    56   27   95 1    
    57   28   96 1    
    58   28   97 1    
    59   28   98 1    
    60   29   30 am   BACKBONE|DICT|INTERRES
    61   29   99 1    
    62   30   31 2    
    63   30   32 1    
    64   32   33 1    
    65   32   34 1    
    66   32  100 1    
    67   33  101 1    
    68   33  102 1    
    69   33  103 1    
    70   34   35 am   BACKBONE|DICT|INTERRES
    71   34  104 1    
    72   35   36 2    
    73   37   38 2    
    74   37   39 am   BACKBONE|DICT|INTERRES
    75   39   40 1    
    76   39  105 1    
    77   40   41 1    
    78   40   42 1    
    79   40  106 1    
    80   41  107 1    
    81   41  108 1    
    82   41  109 1    
    83   42   43 2    
    84   42   44 am   BACKBONE|DICT|INTERRES
    85   44   45 1    
    86   44  110 1    
    87   45   46 1    
    88   45   47 1    
    89   45  111 1    
    90   46  112 1    
    91   46  113 1    
    92   46  114 1    
    93   47   48 2    
    94   47   49 am   BACKBONE|DICT|INTERRES
    95   49   50 1    
    96   49  115 1    
    97   50   51 1    
    98   50   52 1    
    99   50  116 1    
   100   51  117 1    
   101   51  118 1    
   102   51  119 1    
   103   52   53 2    
   104   52   54 am   BACKBONE|DICT|INTERRES
   105   54   55 1    
   106   54  120 1    
   107   55   56 1    
   108   55   57 1    
   109   55  121 1    
   110   56  122 1    
   111   56  123 1    
   112   56  124 1    
   113   57   58 2    
   114   57   59 am   BACKBONE|DICT|INTERRES
   115   59   60 1    
   116   59  125 1    
   117   60   61 1    
   118   60   62 1    
   119   60  126 1    
   120   61  127 1    
   121   61  128 1    
   122   61  129 1    
   123   62   63 2    
   124   62   64 am   BACKBONE|DICT|INTERRES
   125   64   65 1    
   126   64  130 1    
   127   65   66 1    
   128   65   69 1    
   129   65  131 1    
   130   66   67 am   BACKBONE|DICT|INTERRES
   131   66   68 2    
   132   67  132 1    
   133   67  133 1    
   134   69   70 1    
   135   69  134 1    
   136   69  135 1    
   137   70   71 1    
   138   71  136 1    
   139   71  137 1    
@<TRIPOS>SUBSTRUCTURE
     1 UNK         1 GROUP             0       ****    0 ROOT    
