@<TRIPOS>MOLECULE
3R136
137   139    1
SMALL
USER_CHARGES


@<TRIPOS>ATOM
      1 CA         32.4773   27.8584   -0.1131 C.3       0 UNK        -0.1979 
      2 C          31.2437   27.1271    0.3905 C.2       0 UNK         0.4864 
      3 O          30.2757   27.7757    0.7813 O.2       0 UNK        -0.5359 
      4 N          31.2779   25.7879    0.3903 N.am      1 UNK        -0.4318 
      5 CA         30.1730   24.9258    0.8109 C.3       1 UNK         0.0824 
      6 C6         30.6909   23.5680    1.3643 C.3       12 UNK        -0.0944 
      7 S7         29.4064   22.6523    2.2868 S.3       12 UNK        -0.2672 
      8 C8         29.8543   23.0176    4.0163 C.3       12 UNK         0.0333 
      9 C9         29.6475   24.4886    4.3440 C.ar      12 UNK        -0.0807 
     10 C10        30.7090   25.3909    4.2309 C.ar      12 UNK        -0.0894 
     11 C11        30.5076   26.7545    4.4539 C.ar      12 UNK        -0.0804 
     12 C12        29.2401   27.2117    4.8273 C.ar      12 UNK        -0.0824 
     13 C13        28.1826   26.3125    4.9914 C.ar      12 UNK        -0.0762 
     14 C14        28.3896   24.9527    4.7391 C.ar      12 UNK        -0.0782 
     15 C15        26.8230   26.8018    5.4662 C.3       12 UNK         0.0230 
     16 S16        25.5693   26.7283    4.1517 S.3       12 UNK        -0.2608 
     17 C17        26.0602   28.1129    3.0662 C.3       12 UNK        -0.0989 
     18 CA         26.6527   27.6425    1.7071 C.3       5 UNK         0.0716 
     19 N          25.8211   26.6739    0.9770 N.am      5 UNK        -0.4135 
     20 C          24.5534   26.8457    0.5706 C.2       4 UNK         0.5031 
     21 O          23.8644   27.8275    0.8511 O.2       4 UNK        -0.5229 
     22 CA         23.9383   25.7632   -0.3358 C.3       4 UNK         0.0329 
     23 CB         23.7960   26.2949   -1.7723 C.3       4 UNK        -0.2001 
     24 N          24.6944   24.5119   -0.3820 N.am      4 UNK        -0.4303 
     25 C          24.7453   23.5791    0.5753 C.2       3 UNK         0.5044 
     26 O          24.1458   23.6713    1.6462 O.2       3 UNK        -0.5152 
     27 CA         25.6142   22.3320    0.3055 C.3       3 UNK         0.0319 
     28 CB         24.7742   21.1981   -0.3134 C.3       3 UNK        -0.2001 
     29 N          26.8381   22.5816   -0.4753 N.am      3 UNK        -0.4354 
     30 C          26.9693   22.9944   -1.7477 C.2       2 UNK         0.4964 
     31 O          26.0157   23.1767   -2.5058 O.2       2 UNK        -0.5047 
     32 CA         28.3998   23.3113   -2.2344 C.3       2 UNK         0.0288 
     33 CB         28.4161   24.3357   -3.3892 C.3       2 UNK        -0.2113 
     34 N          29.3002   23.7392   -1.1538 N.am      2 UNK        -0.4145 
     35 C          29.1446   24.7895   -0.3301 C.2       1 UNK         0.5006 
     36 O          28.2227   25.6041   -0.4191 O.2       1 UNK        -0.5103 
     37 C          26.9953   28.8092    0.7569 C.2       5 UNK         0.5055 
     38 O          26.6242   29.9576    1.0100 O.2       5 UNK        -0.5220 
     39 N          27.6275   28.4539   -0.3696 N.am      6 UNK        -0.4450 
     40 CA         27.8953   29.3028   -1.5303 C.3       6 UNK         0.0367 
     41 CB         28.5638   28.4527   -2.6226 C.3       6 UNK        -0.1929 
     42 C          28.7198   30.5749   -1.2637 C.2       6 UNK         0.5070 
     43 O          28.5167   31.5589   -1.9773 O.2       6 UNK        -0.5237 
     44 N          29.6274   30.5574   -0.2791 N.am      7 UNK        -0.4739 
     45 CA         30.4565   31.7116    0.0734 C.3       7 UNK         0.0276 
     46 CB         31.7460   31.7029   -0.7683 C.3       7 UNK        -0.1927 
     47 C          30.7889   31.7092    1.5672 C.2       7 UNK         0.5013 
     48 O          30.8758   30.6437    2.1790 O.2       7 UNK        -0.5193 
     49 N          31.0380   32.9047    2.1176 N.am      8 UNK        -0.4253 
     50 CA         31.5070   33.1224    3.4893 C.3       8 UNK         0.0242 
     51 CB         31.1007   34.5385    3.9396 C.3       8 UNK        -0.2000 
     52 C          33.0253   32.8776    3.5927 C.2       8 UNK         0.4948 
     53 O          33.7924   33.8073    3.8532 O.2       8 UNK        -0.5275 
     54 N          33.4271   31.6293    3.3355 N.am      9 UNK        -0.4246 
     55 CA         34.8042   31.1416    3.3920 C.3       9 UNK         0.0261 
     56 CB         34.9013   29.9045    2.4777 C.3       9 UNK        -0.1959 
     57 C          35.2329   30.8109    4.8346 C.2       9 UNK         0.5033 
     58 O          34.4657   31.0052    5.7814 O.2       9 UNK        -0.5390 
     59 N          36.4448   30.2602    4.9829 N.am      10 UNK        -0.4215 
     60 CA         36.9300   29.6370    6.2178 C.3       10 UNK         0.0240 
     61 CB         38.4700   29.6057    6.1950 C.3       10 UNK        -0.1982 
     62 C          36.3073   28.2348    6.3748 C.2       10 UNK         0.4970 
     63 O          36.9966   27.2294    6.1935 O.2       10 UNK        -0.4916 
     64 N          34.9944   28.2088    6.6326 N.am      11 UNK        -0.4279 
     65 CA         34.1414   27.0137    6.6983 C.3       11 UNK         0.1003 
     66 C          34.5926   25.9851    7.7719 C.2       11 UNK         0.5709 
     67 N          34.4573   24.6954    7.4934 N.am      11 UNK        -0.7358 
     68 O          35.0193   26.3464    8.8676 O.2       11 UNK        -0.4999 
     69 C69        32.6475   27.3854    6.9040 C.3       12 UNK        -0.0954 
     70 S70        32.0327   28.6781    5.7691 S.3       12 UNK        -0.2268 
     71 C71        31.6559   27.7331    4.2618 C.3       12 UNK         0.0203 
     72 H72        32.2588   28.3475   -1.0618 H         1 UNK         0.0888 
     73 H73        32.7710   28.6218    0.6062 H         1 UNK         0.0888 
     74 H74        33.3220   27.1856   -0.2589 H         1 UNK         0.0888 
     75 H75        32.0977   25.3158    0.0364 H         1 UNK         0.3017 
     76 H76        29.6516   25.4318    1.6263 H         1 UNK         0.0873 
     77 H77        31.0906   22.9265    0.5779 H         1 UNK         0.0745 
     78 H78        31.5369   23.7375    2.0304 H         1 UNK         0.0745 
     79 H79        29.2416   22.4026    4.6772 H         1 UNK         0.0705 
     80 H80        30.8888   22.7225    4.1991 H         1 UNK         0.0705 
     81 H81        31.6868   25.0366    3.9367 H         1 UNK         0.1334 
     82 H82        29.0865   28.2675    5.0044 H         1 UNK         0.1417 
     83 H83        27.5666   24.2580    4.8403 H         1 UNK         0.1562 
     84 H84        26.8838   27.8182    5.8584 H         1 UNK         0.0748 
     85 H85        26.4928   26.1771    6.2974 H         1 UNK         0.0748 
     86 H86        26.7812   28.7464    3.5854 H         1 UNK         0.0940 
     87 H87        25.1796   28.7383    2.9111 H         1 UNK         0.0940 
     88 H88        27.5944   27.1346    1.9241 H         1 UNK         0.0703 
     89 H89        26.3196   25.8653    0.6287 H         1 UNK         0.3081 
     90 H90        22.9410   25.5437    0.0511 H         1 UNK         0.0719 
     91 H91        23.2016   27.2094   -1.7957 H         1 UNK         0.0809 
     92 H92        24.7670   26.5252   -2.2135 H         1 UNK         0.0809 
     93 H93        23.2978   25.5704   -2.4169 H         1 UNK         0.0809 
     94 H94        25.1838   24.3022   -1.2479 H         1 UNK         0.2990 
     95 H95        25.9608   21.9860    1.2809 H         1 UNK         0.0690 
     96 H96        25.3652   20.2912   -0.4411 H         1 UNK         0.0788 
     97 H97        24.3675   21.4740   -1.2867 H         1 UNK         0.0788 
     98 H98        23.9293   20.9464    0.3291 H         1 UNK         0.0788 
     99 H99        27.6925   22.4898    0.0574 H         1 UNK         0.2993 
    100 H100       28.8010   22.3720   -2.6183 H         1 UNK         0.0949 
    101 H101       27.9351   25.2707   -3.1031 H         1 UNK         0.0767 
    102 H102       29.4338   24.5640   -3.7055 H         1 UNK         0.0767 
    103 H103       27.8850   23.9520   -4.2612 H         1 UNK         0.0767 
    104 H104       30.0891   23.1300   -0.9881 H         1 UNK         0.3013 
    105 H105       27.9265   27.4842   -0.4470 H         1 UNK         0.3121 
    106 H106       26.9247   29.6315   -1.9069 H         1 UNK         0.0774 
    107 H107       29.5002   28.0154   -2.2736 H         1 UNK         0.0815 
    108 H108       27.9117   27.6409   -2.9429 H         1 UNK         0.0815 
    109 H109       28.7898   29.0518   -3.5058 H         1 UNK         0.0815 
    110 H110       29.7476   29.7225    0.2923 H         1 UNK         0.2987 
    111 H111       29.9018   32.6295   -0.1350 H         1 UNK         0.0949 
    112 H112       31.5255   31.7357   -1.8354 H         1 UNK         0.0806 
    113 H113       32.3698   32.5685   -0.5417 H         1 UNK         0.0806 
    114 H114       32.3450   30.8129   -0.5771 H         1 UNK         0.0806 
    115 H115       30.9876   33.7261    1.5319 H         1 UNK         0.3010 
    116 H116       31.0152   32.4078    4.1538 H         1 UNK         0.0829 
    117 H117       31.5497   35.3091    3.3117 H         1 UNK         0.0813 
    118 H118       31.4196   34.7269    4.9657 H         1 UNK         0.0813 
    119 H119       30.0188   34.6689    3.9095 H         1 UNK         0.0813 
    120 H120       32.7064   30.9452    3.1314 H         1 UNK         0.3038 
    121 H121       35.4721   31.9168    3.0105 H         1 UNK         0.0769 
    122 H122       34.5633   30.1361    1.4674 H         1 UNK         0.0811 
    123 H123       34.2940   29.0790    2.8522 H         1 UNK         0.0811 
    124 H124       35.9264   29.5438    2.3897 H         1 UNK         0.0811 
    125 H125       37.0146   30.1204    4.1608 H         1 UNK         0.3204 
    126 H126       36.6212   30.2392    7.0753 H         1 UNK         0.0748 
    127 H127       38.8541   29.0350    5.3484 H         1 UNK         0.0771 
    128 H128       38.8851   30.6121    6.1362 H         1 UNK         0.0771 
    129 H129       38.8632   29.1469    7.1032 H         1 UNK         0.0771 
    130 H130       34.5092   29.0968    6.6966 H         1 UNK         0.2980 
    131 H131       34.2303   26.5299    5.7239 H         1 UNK         0.0545 
    132 H132       34.7298   24.0152    8.1855 H         1 UNK         0.3459 
    133 H133       34.0952   24.3872    6.6049 H         1 UNK         0.3459 
    134 H134       32.4910   27.7555    7.9189 H         1 UNK         0.0616 
    135 H135       32.0161   26.5004    6.8086 H         1 UNK         0.0616 
    136 H136       32.5597   27.2225    3.9266 H         1 UNK         0.0634 
    137 H137       31.3881   28.4295    3.4676 H         1 UNK         0.0634 
@<TRIPOS>BOND
     1    1    2 1    
     2    1   72 1    
     3    1   73 1    
     4    1   74 1    
     5    2    3 2    
     6    2    4 am   BACKBONE|DICT|INTERRES
     7    4    5 1    
     8    4   75 1    
     9    5    6 1    
    10    5   35 1    
    11    5   76 1    
    12    6    7 1    
    13    6   77 1    
    14    6   78 1    
    15    7    8 1    
    16    8    9 1    
    17    8   79 1    
    18    8   80 1    
    19    9   10 ar   
    20    9   14 ar   
    21   10   11 ar   
    22   10   81 1    
    23   11   12 ar   
    24   11   71 1    
    25   12   13 ar   
    26   12   82 1    
    27   13   14 ar   
    28   13   15 1    
    29   14   83 1    
    30   15   16 1    
    31   15   84 1    
    32   15   85 1    
    33   16   17 1    
    34   17   18 1    
    35   17   86 1    
    36   17   87 1    
    37   18   19 1    
    38   18   37 1    
    39   18   88 1    
    40   19   20 am   BACKBONE|DICT|INTERRES
    41   19   89 1    
    42   20   21 2    
    43   20   22 1    
    44   22   23 1    
    45   22   24 1    
    46   22   90 1    
    47   23   91 1    
    48   23   92 1    
    49   23   93 1    
    50   24   25 am   BACKBONE|DICT|INTERRES
    51   24   94 1    
    52   25   26 2    
    53   25   27 1    
    54   27   28 1    
    55   27   29 1    
    56   27   95 1    
    57   28   96 1    
    58   28   97 1    
    59   28   98 1    
    60   29   30 am   BACKBONE|DICT|INTERRES
    61   29   99 1    
    62   30   31 2    
    63   30   32 1    
    64   32   33 1    
    65   32   34 1    
    66   32  100 1    
    67   33  101 1    
    68   33  102 1    
    69   33  103 1    
    70   34   35 am   BACKBONE|DICT|INTERRES
    71   34  104 1    
    72   35   36 2    
    73   37   38 2    
    74   37   39 am   BACKBONE|DICT|INTERRES
    75   39   40 1    
    76   39  105 1    
    77   40   41 1    
    78   40   42 1    
    79   40  106 1    
    80   41  107 1    
    81   41  108 1    
    82   41  109 1    
    83   42   43 2    
    84   42   44 am   BACKBONE|DICT|INTERRES
    85   44   45 1    
    86   44  110 1    
    87   45   46 1    
    88   45   47 1    
    89   45  111 1    
    90   46  112 1    
    91   46  113 1    
    92   46  114 1    
    93   47   48 2    
    94   47   49 am   BACKBONE|DICT|INTERRES
    95   49   50 1    
    96   49  115 1    
    97   50   51 1    
    98   50   52 1    
    99   50  116 1    
   100   51  117 1    
   101   51  118 1    
   102   51  119 1    
   103   52   53 2    
   104   52   54 am   BACKBONE|DICT|INTERRES
   105   54   55 1    
   106   54  120 1    
   107   55   56 1    
   108   55   57 1    
   109   55  121 1    
   110   56  122 1    
   111   56  123 1    
   112   56  124 1    
   113   57   58 2    
   114   57   59 am   BACKBONE|DICT|INTERRES
   115   59   60 1    
   116   59  125 1    
   117   60   61 1    
   118   60   62 1    
   119   60  126 1    
   120   61  127 1    
   121   61  128 1    
   122   61  129 1    
   123   62   63 2    
   124   62   64 am   BACKBONE|DICT|INTERRES
   125   64   65 1    
   126   64  130 1    
   127   65   66 1    
   128   65   69 1    
   129   65  131 1    
   130   66   67 am   BACKBONE|DICT|INTERRES
   131   66   68 2    
   132   67  132 1    
   133   67  133 1    
   134   69   70 1    
   135   69  134 1    
   136   69  135 1    
   137   70   71 1    
   138   71  136 1    
   139   71  137 1    
@<TRIPOS>SUBSTRUCTURE
     1 UNK         1 GROUP             0       ****    0 ROOT    
