@<TRIPOS>MOLECULE
3R136
137   139    1
SMALL
USER_CHARGES


@<TRIPOS>ATOM
      1 CA         29.8019   20.3118   -1.6302 C.3       0 UNK        -0.1979 
      2 C          29.2372   21.4030   -0.7343 C.2       0 UNK         0.4864 
      3 O          29.2767   22.5788   -1.0988 O.2       0 UNK        -0.5359 
      4 N          28.7025   21.0314    0.4360 N.am      1 UNK        -0.4318 
      5 CA         28.1431   21.9395    1.4464 C.3       1 UNK         0.0824 
      6 C6         28.2376   21.3496    2.8762 C.3       12 UNK        -0.0944 
      7 S7         29.9687   21.0634    3.3859 S.3       12 UNK        -0.2672 
      8 C8         30.4250   22.6999    4.0580 C.3       12 UNK         0.0333 
      9 C9         31.5996   23.3516    3.3312 C.ar      12 UNK        -0.0807 
     10 C10        32.6302   23.9416    4.0709 C.ar      12 UNK        -0.0894 
     11 C11        33.7076   24.5673    3.4341 C.ar      12 UNK        -0.0804 
     12 C12        33.7494   24.5898    2.0342 C.ar      12 UNK        -0.0824 
     13 C13        32.7169   24.0264    1.2803 C.ar      12 UNK        -0.0762 
     14 C14        31.6513   23.4053    1.9337 C.ar      12 UNK        -0.0782 
     15 C15        32.7641   24.0742   -0.2402 C.3       12 UNK         0.0230 
     16 S16        32.3907   25.7354   -0.8888 S.3       12 UNK        -0.2608 
     17 C17        30.5779   25.8415   -0.6986 C.3       12 UNK        -0.0989 
     18 CA         30.1290   27.1850   -0.0618 C.3       5 UNK         0.0716 
     19 N          28.8260   27.6144   -0.5795 N.am      5 UNK        -0.4135 
     20 C          28.5874   28.7795   -1.1988 C.2       4 UNK         0.5031 
     21 O          29.4543   29.6198   -1.4393 O.2       4 UNK        -0.5229 
     22 CA         27.1420   29.0722   -1.6522 C.3       4 UNK         0.0329 
     23 CB         26.9930   28.8097   -3.1599 C.3       4 UNK        -0.2001 
     24 N          26.1141   28.3138   -0.9356 N.am      4 UNK        -0.4303 
     25 C          25.8307   28.4392    0.3682 C.2       3 UNK         0.5044 
     26 O          26.3828   29.2463    1.1137 O.2       3 UNK        -0.5152 
     27 CA         24.7959   27.4587    0.9534 C.3       3 UNK         0.0319 
     28 CB         23.3919   28.0826    0.9212 C.3       3 UNK        -0.2001 
     29 N          24.7558   26.1353    0.3109 N.am      3 UNK        -0.4354 
     30 C          25.8090   25.3240    0.1422 C.2       2 UNK         0.4964 
     31 O          26.9683   25.6443    0.4228 O.2       2 UNK        -0.5047 
     32 CA         25.5397   23.9481   -0.4863 C.3       2 UNK         0.0288 
     33 CB         25.4929   24.0594   -2.0187 C.3       2 UNK        -0.2113 
     34 N          26.6202   23.0389   -0.1128 N.am      2 UNK        -0.4145 
     35 C          26.7298   22.4363    1.0767 C.2       1 UNK         0.5006 
     36 O          25.7939   22.3147    1.8698 O.2       1 UNK        -0.5103 
     37 C          30.1055   27.1086    1.4771 C.2       5 UNK         0.5055 
     38 O          31.0881   27.4828    2.1126 O.2       5 UNK        -0.5220 
     39 N          28.9888   26.6383    2.0523 N.am      6 UNK        -0.4450 
     40 CA         28.8175   26.4033    3.4876 C.3       6 UNK         0.0367 
     41 CB         27.5754   25.5208    3.6979 C.3       6 UNK        -0.1929 
     42 C          28.7158   27.6751    4.3502 C.2       6 UNK         0.5070 
     43 O          28.9001   27.5772    5.5644 O.2       6 UNK        -0.5237 
     44 N          28.3920   28.8275    3.7452 N.am      7 UNK        -0.4739 
     45 CA         28.2983   30.1212    4.4295 C.3       7 UNK         0.0276 
     46 CB         27.7280   31.1700    3.4613 C.3       7 UNK        -0.1927 
     47 C          29.6576   30.5929    4.9714 C.2       7 UNK         0.5013 
     48 O          30.6675   30.4525    4.2799 O.2       7 UNK        -0.5193 
     49 N          29.6499   31.2116    6.1610 N.am      8 UNK        -0.4253 
     50 CA         30.8404   31.7107    6.8654 C.3       8 UNK         0.0242 
     51 CB         30.4188   32.3001    8.2213 C.3       8 UNK        -0.2000 
     52 C          31.6755   32.7341    6.0727 C.2       8 UNK         0.4948 
     53 O          32.8921   32.7915    6.2517 O.2       8 UNK        -0.5275 
     54 N          31.0136   33.5049    5.1989 N.am      9 UNK        -0.4246 
     55 CA         31.6470   34.4412    4.2690 C.3       9 UNK         0.0261 
     56 CB         30.5879   35.4319    3.7577 C.3       9 UNK        -0.1959 
     57 C          32.3484   33.7488    3.0841 C.2       9 UNK         0.5033 
     58 O          33.2397   34.3564    2.4888 O.2       9 UNK        -0.5390 
     59 N          31.9362   32.5181    2.7479 N.am      10 UNK        -0.4215 
     60 CA         32.4992   31.7222    1.6577 C.3       10 UNK         0.0240 
     61 CB         31.3782   30.9316    0.9630 C.3       10 UNK        -0.1982 
     62 C          33.5985   30.7776    2.1631 C.2       10 UNK         0.4970 
     63 O          34.6258   30.6515    1.4952 O.2       10 UNK        -0.4916 
     64 N          33.3796   30.1454    3.3223 N.am      11 UNK        -0.4279 
     65 CA         34.3054   29.1921    3.9385 C.3       11 UNK         0.1003 
     66 C          34.1533   29.2237    5.4783 C.2       11 UNK         0.5709 
     67 N          35.2344   29.4576    6.2103 N.am      11 UNK        -0.7358 
     68 O          33.0717   29.0055    6.0175 O.2       11 UNK        -0.4999 
     69 C69        34.1092   27.7710    3.3510 C.3       12 UNK        -0.0954 
     70 S70        35.5676   26.6985    3.5639 S.3       12 UNK        -0.2268 
     71 C71        34.8114   25.1999    4.2847 C.3       12 UNK         0.0203 
     72 H72        29.7053   19.3241   -1.1799 H         1 UNK         0.0888 
     73 H73        29.2781   20.3032   -2.5856 H         1 UNK         0.0888 
     74 H74        30.8586   20.4958   -1.8218 H         1 UNK         0.0888 
     75 H75        28.6809   20.0510    0.6788 H         1 UNK         0.3017 
     76 H76        28.7354   22.8546    1.4506 H         1 UNK         0.0873 
     77 H77        27.7003   20.4011    2.9308 H         1 UNK         0.0745 
     78 H78        27.7615   22.0039    3.6091 H         1 UNK         0.0745 
     79 H79        29.5761   23.3805    4.0169 H         1 UNK         0.0705 
     80 H80        30.6562   22.5713    5.1165 H         1 UNK         0.0705 
     81 H81        32.5929   23.9177    5.1517 H         1 UNK         0.1334 
     82 H82        34.5763   25.0622    1.5227 H         1 UNK         0.1417 
     83 H83        30.8713   22.9533    1.3435 H         1 UNK         0.1562 
     84 H84        32.0762   23.3494   -0.6791 H         1 UNK         0.0748 
     85 H85        33.7615   23.7852   -0.5744 H         1 UNK         0.0748 
     86 H86        30.1931   24.9825   -0.1456 H         1 UNK         0.0940 
     87 H87        30.1611   25.7434   -1.7024 H         1 UNK         0.0940 
     88 H88        30.8721   27.9441   -0.3151 H         1 UNK         0.0703 
     89 H89        28.0487   26.9836   -0.4110 H         1 UNK         0.3081 
     90 H90        26.9571   30.1329   -1.4697 H         1 UNK         0.0719 
     91 H91        27.7237   29.3849   -3.7306 H         1 UNK         0.0809 
     92 H92        27.1453   27.7574   -3.4037 H         1 UNK         0.0809 
     93 H93        26.0053   29.0998   -3.5187 H         1 UNK         0.0809 
     94 H94        25.6086   27.6189   -1.4653 H         1 UNK         0.2990 
     95 H95        25.0689   27.2982    1.9980 H         1 UNK         0.0690 
     96 H96        23.3862   29.0575    1.4114 H         1 UNK         0.0788 
     97 H97        22.6665   27.4576    1.4425 H         1 UNK         0.0788 
     98 H98        23.0383   28.2293   -0.1002 H         1 UNK         0.0788 
     99 H99        23.8435   25.8047    0.0291 H         1 UNK         0.2993 
    100 H100       24.5879   23.5599   -0.1172 H         1 UNK         0.0949 
    101 H101       25.3272   23.0853   -2.4798 H         1 UNK         0.0767 
    102 H102       24.6808   24.7117   -2.3423 H         1 UNK         0.0767 
    103 H103       26.4213   24.4658   -2.4233 H         1 UNK         0.0767 
    104 H104       27.4699   23.0960   -0.6685 H         1 UNK         0.3013 
    105 H105       28.2229   26.3272    1.4577 H         1 UNK         0.3121 
    106 H106       29.6939   25.8529    3.8363 H         1 UNK         0.0774 
    107 H107       27.4612   25.2496    4.7483 H         1 UNK         0.0815 
    108 H108       26.6629   26.0334    3.3927 H         1 UNK         0.0815 
    109 H109       27.6409   24.5944    3.1295 H         1 UNK         0.0815 
    110 H110       28.2402   28.8256    2.7460 H         1 UNK         0.2987 
    111 H111       27.6071   30.0066    5.2673 H         1 UNK         0.0949 
    112 H112       27.6822   32.1556    3.9263 H         1 UNK         0.0806 
    113 H113       28.3360   31.2603    2.5599 H         1 UNK         0.0806 
    114 H114       26.7132   30.9147    3.1569 H         1 UNK         0.0806 
    115 H115       28.7714   31.3036    6.6510 H         1 UNK         0.3010 
    116 H116       31.4849   30.8509    7.0560 H         1 UNK         0.0829 
    117 H117       29.7390   33.1446    8.1018 H         1 UNK         0.0813 
    118 H118       29.9240   31.5537    8.8431 H         1 UNK         0.0813 
    119 H119       31.2867   32.6568    8.7782 H         1 UNK         0.0813 
    120 H120       30.0112   33.4039    5.1361 H         1 UNK         0.3038 
    121 H121       32.4065   35.0059    4.8143 H         1 UNK         0.0769 
    122 H122       29.7928   34.9267    3.2076 H         1 UNK         0.0811 
    123 H123       31.0335   36.1657    3.0845 H         1 UNK         0.0811 
    124 H124       30.1314   35.9848    4.5789 H         1 UNK         0.0811 
    125 H125       31.2624   32.0413    3.3392 H         1 UNK         0.3204 
    126 H126       32.9451   32.3840    0.9119 H         1 UNK         0.0748 
    127 H127       31.7740   30.3420    0.1351 H         1 UNK         0.0771 
    128 H128       30.8817   30.2390    1.6430 H         1 UNK         0.0771 
    129 H129       30.6184   31.5960    0.5513 H         1 UNK         0.0771 
    130 H130       32.4887   30.2599    3.8021 H         1 UNK         0.2980 
    131 H131       35.3189   29.5226    3.7010 H         1 UNK         0.0545 
    132 H132       35.1507   29.4705    7.2143 H         1 UNK         0.3459 
    133 H133       36.1313   29.6187    5.7795 H         1 UNK         0.3459 
    134 H134       33.9255   27.8264    2.2767 H         1 UNK         0.0616 
    135 H135       33.2201   27.2998    3.7741 H         1 UNK         0.0616 
    136 H136       35.5945   24.4584    4.4456 H         1 UNK         0.0634 
    137 H137       34.4234   25.4615    5.2705 H         1 UNK         0.0634 
@<TRIPOS>BOND
     1    1    2 1    
     2    1   72 1    
     3    1   73 1    
     4    1   74 1    
     5    2    3 2    
     6    2    4 am   BACKBONE|DICT|INTERRES
     7    4    5 1    
     8    4   75 1    
     9    5    6 1    
    10    5   35 1    
    11    5   76 1    
    12    6    7 1    
    13    6   77 1    
    14    6   78 1    
    15    7    8 1    
    16    8    9 1    
    17    8   79 1    
    18    8   80 1    
    19    9   10 ar   
    20    9   14 ar   
    21   10   11 ar   
    22   10   81 1    
    23   11   12 ar   
    24   11   71 1    
    25   12   13 ar   
    26   12   82 1    
    27   13   14 ar   
    28   13   15 1    
    29   14   83 1    
    30   15   16 1    
    31   15   84 1    
    32   15   85 1    
    33   16   17 1    
    34   17   18 1    
    35   17   86 1    
    36   17   87 1    
    37   18   19 1    
    38   18   37 1    
    39   18   88 1    
    40   19   20 am   BACKBONE|DICT|INTERRES
    41   19   89 1    
    42   20   21 2    
    43   20   22 1    
    44   22   23 1    
    45   22   24 1    
    46   22   90 1    
    47   23   91 1    
    48   23   92 1    
    49   23   93 1    
    50   24   25 am   BACKBONE|DICT|INTERRES
    51   24   94 1    
    52   25   26 2    
    53   25   27 1    
    54   27   28 1    
    55   27   29 1    
    56   27   95 1    
    57   28   96 1    
    58   28   97 1    
    59   28   98 1    
    60   29   30 am   BACKBONE|DICT|INTERRES
    61   29   99 1    
    62   30   31 2    
    63   30   32 1    
    64   32   33 1    
    65   32   34 1    
    66   32  100 1    
    67   33  101 1    
    68   33  102 1    
    69   33  103 1    
    70   34   35 am   BACKBONE|DICT|INTERRES
    71   34  104 1    
    72   35   36 2    
    73   37   38 2    
    74   37   39 am   BACKBONE|DICT|INTERRES
    75   39   40 1    
    76   39  105 1    
    77   40   41 1    
    78   40   42 1    
    79   40  106 1    
    80   41  107 1    
    81   41  108 1    
    82   41  109 1    
    83   42   43 2    
    84   42   44 am   BACKBONE|DICT|INTERRES
    85   44   45 1    
    86   44  110 1    
    87   45   46 1    
    88   45   47 1    
    89   45  111 1    
    90   46  112 1    
    91   46  113 1    
    92   46  114 1    
    93   47   48 2    
    94   47   49 am   BACKBONE|DICT|INTERRES
    95   49   50 1    
    96   49  115 1    
    97   50   51 1    
    98   50   52 1    
    99   50  116 1    
   100   51  117 1    
   101   51  118 1    
   102   51  119 1    
   103   52   53 2    
   104   52   54 am   BACKBONE|DICT|INTERRES
   105   54   55 1    
   106   54  120 1    
   107   55   56 1    
   108   55   57 1    
   109   55  121 1    
   110   56  122 1    
   111   56  123 1    
   112   56  124 1    
   113   57   58 2    
   114   57   59 am   BACKBONE|DICT|INTERRES
   115   59   60 1    
   116   59  125 1    
   117   60   61 1    
   118   60   62 1    
   119   60  126 1    
   120   61  127 1    
   121   61  128 1    
   122   61  129 1    
   123   62   63 2    
   124   62   64 am   BACKBONE|DICT|INTERRES
   125   64   65 1    
   126   64  130 1    
   127   65   66 1    
   128   65   69 1    
   129   65  131 1    
   130   66   67 am   BACKBONE|DICT|INTERRES
   131   66   68 2    
   132   67  132 1    
   133   67  133 1    
   134   69   70 1    
   135   69  134 1    
   136   69  135 1    
   137   70   71 1    
   138   71  136 1    
   139   71  137 1    
@<TRIPOS>SUBSTRUCTURE
     1 UNK         1 GROUP             0       ****    0 ROOT    
