@<TRIPOS>MOLECULE
3R136
137   139    1
SMALL
USER_CHARGES


@<TRIPOS>ATOM
      1 CA         31.3045   24.4488   -1.6150 C.3       0 UNK        -0.1979 
      2 C          30.3958   24.0363   -0.4677 C.2       0 UNK         0.4864 
      3 O          29.6942   24.8831    0.0902 O.2       0 UNK        -0.5359 
      4 N          30.3900   22.7370   -0.1326 N.am      1 UNK        -0.4318 
      5 CA         29.6240   22.0781    0.9388 C.3       1 UNK         0.0824 
      6 C6         30.1878   20.6485    1.2091 C.3       12 UNK        -0.0944 
      7 S7         31.5636   20.5388    2.4063 S.3       12 UNK        -0.2672 
      8 C8         32.8842   21.6143    1.7408 C.3       12 UNK         0.0333 
      9 C9         32.8494   23.0606    2.2404 C.ar      12 UNK        -0.0807 
     10 C10        33.4576   24.0607    1.4711 C.ar      12 UNK        -0.0894 
     11 C11        33.4420   25.3936    1.8948 C.ar      12 UNK        -0.0804 
     12 C12        32.8148   25.7275    3.0953 C.ar      12 UNK        -0.0824 
     13 C13        32.1989   24.7459    3.8702 C.ar      12 UNK        -0.0762 
     14 C14        32.2421   23.4135    3.4544 C.ar      12 UNK        -0.0782 
     15 C15        31.4361   25.1433    5.1239 C.3       12 UNK         0.0230 
     16 S16        29.6370   24.8682    4.9793 S.3       12 UNK        -0.2608 
     17 C17        29.2385   25.4287    3.2826 C.3       12 UNK        -0.0989 
     18 CA         29.2259   26.9616    3.0496 C.3       5 UNK         0.0716 
     19 N          29.0479   27.2653    1.6216 N.am      5 UNK        -0.4135 
     20 C          29.0087   28.4868    1.0660 C.2       4 UNK         0.5031 
     21 O          29.1908   29.5347    1.6816 O.2       4 UNK        -0.5229 
     22 CA         28.5965   28.5680   -0.4146 C.3       4 UNK         0.0329 
     23 CB         29.7279   28.1523   -1.3646 C.3       4 UNK        -0.2001 
     24 N          27.3871   27.7881   -0.6893 N.am      4 UNK        -0.4303 
     25 C          26.1720   28.1228   -0.2302 C.2       3 UNK         0.5044 
     26 O          25.9518   29.1308    0.4393 O.2       3 UNK        -0.5152 
     27 CA         25.0013   27.1768   -0.5490 C.3       3 UNK         0.0319 
     28 CB         24.3224   27.5905   -1.8642 C.3       3 UNK        -0.2001 
     29 N          25.3606   25.7576   -0.6139 N.am      3 UNK        -0.4354 
     30 C          25.8962   25.0415    0.3846 C.2       2 UNK         0.4964 
     31 O          26.2131   25.5244    1.4738 O.2       2 UNK        -0.5047 
     32 CA         26.1339   23.5445    0.1269 C.3       2 UNK         0.0288 
     33 CB         25.7781   23.0773   -1.3050 C.3       2 UNK        -0.2113 
     34 N          27.5325   23.2641    0.4240 N.am      2 UNK        -0.4145 
     35 C          28.0968   22.0748    0.6471 C.2       1 UNK         0.5006 
     36 O          27.4628   21.0175    0.6165 O.2       1 UNK        -0.5103 
     37 C          28.1729   27.6606    3.9360 C.2       5 UNK         0.5055 
     38 O          28.5207   28.1949    4.9905 O.2       5 UNK        -0.5220 
     39 N          26.9082   27.6580    3.4874 N.am      6 UNK        -0.4450 
     40 CA         25.8009   28.3471    4.1536 C.3       6 UNK         0.0367 
     41 CB         24.4692   27.9315    3.5095 C.3       6 UNK        -0.1929 
     42 C          25.9551   29.8799    4.1549 C.2       6 UNK         0.5070 
     43 O          25.5927   30.5171    5.1444 O.2       6 UNK        -0.5237 
     44 N          26.4852   30.4441    3.0606 N.am      7 UNK        -0.4739 
     45 CA         26.7586   31.8744    2.9147 C.3       7 UNK         0.0276 
     46 CB         26.9454   32.2236    1.4292 C.3       7 UNK        -0.1927 
     47 C          27.9667   32.3383    3.7452 C.2       7 UNK         0.5013 
     48 O          27.8725   33.3774    4.4010 O.2       7 UNK        -0.5193 
     49 N          29.0688   31.5775    3.7147 N.am      8 UNK        -0.4253 
     50 CA         30.2897   31.8653    4.4640 C.3       8 UNK         0.0242 
     51 CB         31.1721   32.8518    3.6769 C.3       8 UNK        -0.2000 
     52 C          31.0440   30.5619    4.7342 C.2       8 UNK         0.4948 
     53 O          31.2684   29.7870    3.8051 O.2       8 UNK        -0.5275 
     54 N          31.4949   30.3721    5.9815 N.am      9 UNK        -0.4246 
     55 CA         32.1809   29.1623    6.4572 C.3       9 UNK         0.0261 
     56 CB         32.4377   29.2899    7.9677 C.3       9 UNK        -0.1959 
     57 C          33.4894   28.8090    5.7203 C.2       9 UNK         0.5033 
     58 O          33.8947   27.6472    5.7499 O.2       9 UNK        -0.5390 
     59 N          34.1168   29.8016    5.0777 N.am      10 UNK        -0.4215 
     60 CA         35.3183   29.6533    4.2538 C.3       10 UNK         0.0240 
     61 CB         36.3746   30.6591    4.7488 C.3       10 UNK        -0.1982 
     62 C          35.0346   29.8417    2.7495 C.2       10 UNK         0.4970 
     63 O          35.9929   29.9207    1.9802 O.2       10 UNK        -0.4916 
     64 N          33.7562   29.9348    2.3475 N.am      11 UNK        -0.4279 
     65 CA         33.2947   30.2134    0.9722 C.3       11 UNK         0.1003 
     66 C          33.6556   31.6336    0.4340 C.2       11 UNK         0.5709 
     67 N          34.0765   32.5762    1.2698 N.am      11 UNK        -0.7358 
     68 O          33.5161   31.9052   -0.7563 O.2       11 UNK        -0.4999 
     69 C69        33.6436   29.0779   -0.0376 C.3       12 UNK        -0.0954 
     70 S70        32.7569   27.5368    0.3456 S.3       12 UNK        -0.2268 
     71 C71        34.0637   26.4972    1.0574 C.3       12 UNK         0.0203 
     72 H72        31.8096   23.5944   -2.0647 H         1 UNK         0.0888 
     73 H73        30.7258   24.9482   -2.3912 H         1 UNK         0.0888 
     74 H74        32.0650   25.1409   -1.2575 H         1 UNK         0.0888 
     75 H75        30.9649   22.1099   -0.6752 H         1 UNK         0.3017 
     76 H76        29.7476   22.6671    1.8493 H         1 UNK         0.0873 
     77 H77        29.4276   19.9963    1.6419 H         1 UNK         0.0745 
     78 H78        30.4819   20.1602    0.2785 H         1 UNK         0.0745 
     79 H79        33.8437   21.1864    2.0334 H         1 UNK         0.0705 
     80 H80        32.8577   21.5824    0.6510 H         1 UNK         0.0705 
     81 H81        33.9344   23.8033    0.5352 H         1 UNK         0.1334 
     82 H82        32.7788   26.7632    3.4057 H         1 UNK         0.1417 
     83 H83        31.7658   22.6649    4.0713 H         1 UNK         0.1562 
     84 H84        31.6016   26.1953    5.3535 H         1 UNK         0.0748 
     85 H85        31.8184   24.5807    5.9765 H         1 UNK         0.0748 
     86 H86        28.2691   25.0022    3.0218 H         1 UNK         0.0940 
     87 H87        29.9432   24.9627    2.5973 H         1 UNK         0.0940 
     88 H88        30.2034   27.3576    3.3300 H         1 UNK         0.0703 
     89 H89        28.9747   26.4602    1.0078 H         1 UNK         0.3081 
     90 H90        28.3661   29.6140   -0.6297 H         1 UNK         0.0719 
     91 H91        30.0588   27.1310   -1.1854 H         1 UNK         0.0809 
     92 H92        29.4209   28.2285   -2.4076 H         1 UNK         0.0809 
     93 H93        30.5926   28.8041   -1.2369 H         1 UNK         0.0809 
     94 H94        27.4910   26.9369   -1.2216 H         1 UNK         0.2990 
     95 H95        24.2709   27.2856    0.2550 H         1 UNK         0.0690 
     96 H96        23.4228   27.0031   -2.0496 H         1 UNK         0.0788 
     97 H97        24.9881   27.4671   -2.7194 H         1 UNK         0.0788 
     98 H98        24.0209   28.6388   -1.8345 H         1 UNK         0.0788 
     99 H99        25.1444   25.2774   -1.4756 H         1 UNK         0.2993 
    100 H100       25.5124   22.9995    0.8402 H         1 UNK         0.0949 
    101 H101       24.7304   23.2703   -1.5397 H         1 UNK         0.0767 
    102 H102       26.3931   23.5703   -2.0591 H         1 UNK         0.0767 
    103 H103       25.9254   22.0032   -1.4178 H         1 UNK         0.0767 
    104 H104       28.1531   24.0731    0.4365 H         1 UNK         0.3013 
    105 H105       26.6926   27.1388    2.6418 H         1 UNK         0.3121 
    106 H106       25.7889   28.0168    5.1946 H         1 UNK         0.0774 
    107 H107       23.6262   28.3636    4.0502 H         1 UNK         0.0815 
    108 H108       24.3978   28.2698    2.4764 H         1 UNK         0.0815 
    109 H109       24.3416   26.8488    3.5189 H         1 UNK         0.0815 
    110 H110       26.7138   29.8540    2.2676 H         1 UNK         0.2987 
    111 H111       25.8843   32.4208    3.2757 H         1 UNK         0.0949 
    112 H112       27.7949   31.6992    0.9915 H         1 UNK         0.0806 
    113 H113       26.0599   31.9657    0.8480 H         1 UNK         0.0806 
    114 H114       27.1198   33.2924    1.2990 H         1 UNK         0.0806 
    115 H115       29.0929   30.7372    3.1350 H         1 UNK         0.3010 
    116 H116       30.0218   32.3147    5.4228 H         1 UNK         0.0829 
    117 H117       30.6687   33.8080    3.5340 H         1 UNK         0.0813 
    118 H118       32.1054   33.0539    4.2034 H         1 UNK         0.0813 
    119 H119       31.4268   32.4599    2.6914 H         1 UNK         0.0813 
    120 H120       31.2939   31.0736    6.6802 H         1 UNK         0.3038 
    121 H121       31.4921   28.3304    6.3005 H         1 UNK         0.0769 
    122 H122       33.0906   30.1331    8.1966 H         1 UNK         0.0811 
    123 H123       31.5073   29.4232    8.5201 H         1 UNK         0.0811 
    124 H124       32.9168   28.3914    8.3598 H         1 UNK         0.0811 
    125 H125       33.7094   30.7242    5.1253 H         1 UNK         0.3204 
    126 H126       35.7322   28.6491    4.3658 H         1 UNK         0.0748 
    127 H127       37.3149   30.5439    4.2077 H         1 UNK         0.0771 
    128 H128       36.0455   31.6904    4.6160 H         1 UNK         0.0771 
    129 H129       36.5953   30.5114    5.8062 H         1 UNK         0.0771 
    130 H130       33.0043   29.8237    3.0230 H         1 UNK         0.2980 
    131 H131       32.2068   30.2438    1.0503 H         1 UNK         0.0545 
    132 H132       34.2929   33.4914    0.9081 H         1 UNK         0.3459 
    133 H133       34.1988   32.3775    2.2479 H         1 UNK         0.3459 
    134 H134       34.7178   28.8968   -0.0854 H         1 UNK         0.0616 
    135 H135       33.3422   29.3525   -1.0496 H         1 UNK         0.0616 
    136 H136       34.6803   26.0889    0.2555 H         1 UNK         0.0634 
    137 H137       34.7197   27.0983    1.6873 H         1 UNK         0.0634 
@<TRIPOS>BOND
     1    1    2 1    
     2    1   72 1    
     3    1   73 1    
     4    1   74 1    
     5    2    3 2    
     6    2    4 am   BACKBONE|DICT|INTERRES
     7    4    5 1    
     8    4   75 1    
     9    5    6 1    
    10    5   35 1    
    11    5   76 1    
    12    6    7 1    
    13    6   77 1    
    14    6   78 1    
    15    7    8 1    
    16    8    9 1    
    17    8   79 1    
    18    8   80 1    
    19    9   10 ar   
    20    9   14 ar   
    21   10   11 ar   
    22   10   81 1    
    23   11   12 ar   
    24   11   71 1    
    25   12   13 ar   
    26   12   82 1    
    27   13   14 ar   
    28   13   15 1    
    29   14   83 1    
    30   15   16 1    
    31   15   84 1    
    32   15   85 1    
    33   16   17 1    
    34   17   18 1    
    35   17   86 1    
    36   17   87 1    
    37   18   19 1    
    38   18   37 1    
    39   18   88 1    
    40   19   20 am   BACKBONE|DICT|INTERRES
    41   19   89 1    
    42   20   21 2    
    43   20   22 1    
    44   22   23 1    
    45   22   24 1    
    46   22   90 1    
    47   23   91 1    
    48   23   92 1    
    49   23   93 1    
    50   24   25 am   BACKBONE|DICT|INTERRES
    51   24   94 1    
    52   25   26 2    
    53   25   27 1    
    54   27   28 1    
    55   27   29 1    
    56   27   95 1    
    57   28   96 1    
    58   28   97 1    
    59   28   98 1    
    60   29   30 am   BACKBONE|DICT|INTERRES
    61   29   99 1    
    62   30   31 2    
    63   30   32 1    
    64   32   33 1    
    65   32   34 1    
    66   32  100 1    
    67   33  101 1    
    68   33  102 1    
    69   33  103 1    
    70   34   35 am   BACKBONE|DICT|INTERRES
    71   34  104 1    
    72   35   36 2    
    73   37   38 2    
    74   37   39 am   BACKBONE|DICT|INTERRES
    75   39   40 1    
    76   39  105 1    
    77   40   41 1    
    78   40   42 1    
    79   40  106 1    
    80   41  107 1    
    81   41  108 1    
    82   41  109 1    
    83   42   43 2    
    84   42   44 am   BACKBONE|DICT|INTERRES
    85   44   45 1    
    86   44  110 1    
    87   45   46 1    
    88   45   47 1    
    89   45  111 1    
    90   46  112 1    
    91   46  113 1    
    92   46  114 1    
    93   47   48 2    
    94   47   49 am   BACKBONE|DICT|INTERRES
    95   49   50 1    
    96   49  115 1    
    97   50   51 1    
    98   50   52 1    
    99   50  116 1    
   100   51  117 1    
   101   51  118 1    
   102   51  119 1    
   103   52   53 2    
   104   52   54 am   BACKBONE|DICT|INTERRES
   105   54   55 1    
   106   54  120 1    
   107   55   56 1    
   108   55   57 1    
   109   55  121 1    
   110   56  122 1    
   111   56  123 1    
   112   56  124 1    
   113   57   58 2    
   114   57   59 am   BACKBONE|DICT|INTERRES
   115   59   60 1    
   116   59  125 1    
   117   60   61 1    
   118   60   62 1    
   119   60  126 1    
   120   61  127 1    
   121   61  128 1    
   122   61  129 1    
   123   62   63 2    
   124   62   64 am   BACKBONE|DICT|INTERRES
   125   64   65 1    
   126   64  130 1    
   127   65   66 1    
   128   65   69 1    
   129   65  131 1    
   130   66   67 am   BACKBONE|DICT|INTERRES
   131   66   68 2    
   132   67  132 1    
   133   67  133 1    
   134   69   70 1    
   135   69  134 1    
   136   69  135 1    
   137   70   71 1    
   138   71  136 1    
   139   71  137 1    
@<TRIPOS>SUBSTRUCTURE
     1 UNK         1 GROUP             0       ****    0 ROOT    
