@<TRIPOS>MOLECULE
3R136
137   139    1
SMALL
USER_CHARGES


@<TRIPOS>ATOM
      1 CA         25.7905   25.3365    3.9079 C.3       0 UNK        -0.1979 
      2 C          26.4374   24.4372    2.8660 C.2       0 UNK         0.4864 
      3 O          26.7934   24.9169    1.7885 O.2       0 UNK        -0.5359 
      4 N          26.5818   23.1397    3.1758 N.am      1 UNK        -0.4318 
      5 CA         27.2025   22.1002    2.3420 C.3       1 UNK         0.0824 
      6 C6         28.7385   22.2825    2.1916 C.3       12 UNK        -0.0944 
      7 S7         29.6181   22.0890    3.7773 S.3       12 UNK        -0.2672 
      8 C8         31.3396   21.9125    3.2060 C.3       12 UNK         0.0333 
      9 C9         31.9061   23.2394    2.7218 C.ar      12 UNK        -0.0807 
     10 C10        32.6152   24.0657    3.5987 C.ar      12 UNK        -0.0894 
     11 C11        33.1212   25.2940    3.1622 C.ar      12 UNK        -0.0804 
     12 C12        32.8919   25.7046    1.8446 C.ar      12 UNK        -0.0824 
     13 C13        32.1887   24.8844    0.9569 C.ar      12 UNK        -0.0762 
     14 C14        31.7195   23.6434    1.3969 C.ar      12 UNK        -0.0782 
     15 C15        31.9457   25.3284   -0.4804 C.3       12 UNK         0.0230 
     16 S16        30.1710   25.3826   -0.8957 S.3       12 UNK        -0.2608 
     17 C17        29.5796   26.7761    0.1245 C.3       12 UNK        -0.0989 
     18 CA         29.0427   27.9523   -0.7308 C.3       5 UNK         0.0716 
     19 N          27.9583   27.5194   -1.6140 N.am      5 UNK        -0.4135 
     20 C          27.4304   28.2265   -2.6224 C.2       4 UNK         0.5031 
     21 O          27.8633   29.3177   -2.9962 O.2       4 UNK        -0.5229 
     22 CA         26.2179   27.6075   -3.3470 C.3       4 UNK         0.0329 
     23 CB         26.6573   26.9567   -4.6686 C.3       4 UNK        -0.2001 
     24 N          25.5226   26.6070   -2.5327 N.am      4 UNK        -0.4303 
     25 C          24.7560   26.8731   -1.4670 C.2       3 UNK         0.5044 
     26 O          24.4132   28.0109   -1.1456 O.2       3 UNK        -0.5152 
     27 CA         24.3376   25.6884   -0.5751 C.3       3 UNK         0.0319 
     28 CB         22.8698   25.2848   -0.8178 C.3       3 UNK        -0.2001 
     29 N          25.2458   24.5300   -0.6290 N.am      3 UNK        -0.4354 
     30 C          25.4241   23.6440   -1.6231 C.2       2 UNK         0.4964 
     31 O          24.8299   23.7070   -2.6988 O.2       2 UNK        -0.5047 
     32 CA         26.4805   22.5379   -1.4319 C.3       2 UNK         0.0288 
     33 CB         27.6223   22.7048   -2.4501 C.3       2 UNK        -0.2113 
     34 N          27.0562   22.4996   -0.0864 N.am      2 UNK        -0.4145 
     35 C          26.4634   21.9666    0.9918 C.2       1 UNK         0.5006 
     36 O          25.3671   21.4040    0.9598 O.2       1 UNK        -0.5103 
     37 C          28.5676   29.0987    0.1849 C.2       5 UNK         0.5055 
     38 O          27.3942   29.1387    0.5613 O.2       5 UNK        -0.5220 
     39 N          29.4985   29.9782    0.5798 N.am      6 UNK        -0.4450 
     40 CA         29.2377   31.1159    1.4736 C.3       6 UNK         0.0367 
     41 CB         30.2770   32.2199    1.2103 C.3       6 UNK        -0.1929 
     42 C          29.1704   30.7390    2.9706 C.2       6 UNK         0.5070 
     43 O          29.0940   31.6367    3.8113 O.2       6 UNK        -0.5237 
     44 N          29.1997   29.4340    3.2844 N.am      7 UNK        -0.4739 
     45 CA         29.0775   28.8296    4.6154 C.3       7 UNK         0.0276 
     46 CB         27.6266   28.9696    5.1315 C.3       7 UNK        -0.1927 
     47 C          30.1490   29.3693    5.5792 C.2       7 UNK         0.5013 
     48 O          31.3345   29.1696    5.3184 O.2       7 UNK        -0.5193 
     49 N          29.7315   30.0721    6.6406 N.am      8 UNK        -0.4253 
     50 CA         30.6042   30.6947    7.6406 C.3       8 UNK         0.0242 
     51 CB         29.7386   31.2573    8.7802 C.3       8 UNK        -0.2000 
     52 C          31.5403   31.7868    7.0862 C.2       8 UNK         0.4948 
     53 O          32.5563   32.0710    7.7218 O.2       8 UNK        -0.5275 
     54 N          31.1999   32.3771    5.9304 N.am      9 UNK        -0.4246 
     55 CA         32.0405   33.3520    5.2313 C.3       9 UNK         0.0261 
     56 CB         31.1433   34.3628    4.4985 C.3       9 UNK        -0.1959 
     57 C          33.0501   32.6965    4.2683 C.2       9 UNK         0.5033 
     58 O          33.9243   33.4038    3.7643 O.2       9 UNK        -0.5390 
     59 N          32.9354   31.3826    4.0263 N.am      10 UNK        -0.4215 
     60 CA         33.9032   30.5889    3.2682 C.3       10 UNK         0.0240 
     61 CB         33.1474   29.5958    2.3652 C.3       10 UNK        -0.1982 
     62 C          34.8476   29.8537    4.2339 C.2       10 UNK         0.4970 
     63 O          34.5827   29.7959    5.4368 O.2       10 UNK        -0.4916 
     64 N          35.9310   29.2944    3.6793 N.am      11 UNK        -0.4279 
     65 CA         36.9593   28.5103    4.3918 C.3       11 UNK         0.1003 
     66 C          37.8179   29.3267    5.4085 C.2       11 UNK         0.5709 
     67 N          37.8392   30.6528    5.3411 N.am      11 UNK        -0.7358 
     68 O          38.5079   28.7540    6.2492 O.2       11 UNK        -0.4999 
     69 C69        36.4067   27.1839    4.9962 C.3       12 UNK        -0.0954 
     70 S70        35.6999   26.0723    3.7345 S.3       12 UNK        -0.2268 
     71 C71        33.9227   26.1733    4.1097 C.3       12 UNK         0.0203 
     72 H72        26.5200   26.0530    4.2831 H         1 UNK         0.0888 
     73 H73        25.4039   24.7686    4.7539 H         1 UNK         0.0888 
     74 H74        24.9636   25.8904    3.4643 H         1 UNK         0.0888 
     75 H75        26.2424   22.8139    4.0699 H         1 UNK         0.3017 
     76 H76        27.0348   21.1536    2.8588 H         1 UNK         0.0873 
     77 H77        28.9747   23.2675    1.7859 H         1 UNK         0.0745 
     78 H78        29.1432   21.5446    1.4960 H         1 UNK         0.0745 
     79 H79        31.3948   21.1621    2.4158 H         1 UNK         0.0705 
     80 H80        31.9439   21.5289    4.0295 H         1 UNK         0.0705 
     81 H81        32.7754   23.7502    4.6207 H         1 UNK         0.1334 
     82 H82        33.2787   26.6556    1.5079 H         1 UNK         0.1417 
     83 H83        31.1843   23.0035    0.7091 H         1 UNK         0.1562 
     84 H84        32.4427   24.6286   -1.1535 H         1 UNK         0.0748 
     85 H85        32.3884   26.3071   -0.6724 H         1 UNK         0.0748 
     86 H86        30.3888   27.1131    0.7748 H         1 UNK         0.0940 
     87 H87        28.8018   26.3955    0.7899 H         1 UNK         0.0940 
     88 H88        29.8529   28.3276   -1.3598 H         1 UNK         0.0703 
     89 H89        27.5256   26.6416   -1.3740 H         1 UNK         0.3081 
     90 H90        25.5194   28.4156   -3.5742 H         1 UNK         0.0719 
     91 H91        27.1557   27.6817   -5.3138 H         1 UNK         0.0809 
     92 H92        27.3547   26.1344   -4.5023 H         1 UNK         0.0809 
     93 H93        25.8031   26.5660   -5.2220 H         1 UNK         0.0809 
     94 H94        25.6646   25.6327   -2.7704 H         1 UNK         0.2990 
     95 H95        24.4064   26.0504    0.4522 H         1 UNK         0.0690 
     96 H96        22.2017   26.1258   -0.6280 H         1 UNK         0.0788 
     97 H97        22.5667   24.4741   -0.1552 H         1 UNK         0.0788 
     98 H98        22.6962   24.9637   -1.8450 H         1 UNK         0.0788 
     99 H99        25.8423   24.4415    0.1913 H         1 UNK         0.2993 
    100 H100       25.9849   21.5842   -1.6263 H         1 UNK         0.0949 
    101 H101       27.2455   22.6606   -3.4730 H         1 UNK         0.0767 
    102 H102       28.1320   23.6616   -2.3334 H         1 UNK         0.0767 
    103 H103       28.3653   21.9136   -2.3479 H         1 UNK         0.0767 
    104 H104       27.9305   22.9888    0.0422 H         1 UNK         0.3013 
    105 H105       30.4452   29.8775    0.2422 H         1 UNK         0.3121 
    106 H106       28.2592   31.5274    1.2162 H         1 UNK         0.0774 
    107 H107       29.9584   33.1595    1.6607 H         1 UNK         0.0815 
    108 H108       31.2534   31.9765    1.6268 H         1 UNK         0.0815 
    109 H109       30.4006   32.4103    0.1441 H         1 UNK         0.0815 
    110 H110       29.2888   28.7827    2.5197 H         1 UNK         0.2987 
    111 H111       29.2865   27.7650    4.4972 H         1 UNK         0.0949 
    112 H112       27.4941   28.4599    6.0868 H         1 UNK         0.0806 
    113 H113       26.9219   28.5201    4.4318 H         1 UNK         0.0806 
    114 H114       27.3303   30.0112    5.2612 H         1 UNK         0.0806 
    115 H115       28.7384   30.2135    6.7552 H         1 UNK         0.3010 
    116 H116       31.2419   29.9086    8.0509 H         1 UNK         0.0829 
    117 H117       29.1418   30.4756    9.2505 H         1 UNK         0.0813 
    118 H118       30.3596   31.7002    9.5603 H         1 UNK         0.0813 
    119 H119       29.0594   32.0336    8.4253 H         1 UNK         0.0813 
    120 H120       30.3536   32.0840    5.4513 H         1 UNK         0.3038 
    121 H121       32.6263   33.9117    5.9636 H         1 UNK         0.0769 
    122 H122       31.7394   35.1067    3.9682 H         1 UNK         0.0811 
    123 H123       30.5034   34.9011    5.1977 H         1 UNK         0.0811 
    124 H124       30.5007   33.8777    3.7668 H         1 UNK         0.0811 
    125 H125       32.2667   30.8410    4.5655 H         1 UNK         0.3204 
    126 H126       34.5107   31.2356    2.6318 H         1 UNK         0.0748 
    127 H127       33.8380   28.9376    1.8377 H         1 UNK         0.0771 
    128 H128       32.4608   28.9668    2.9316 H         1 UNK         0.0771 
    129 H129       32.5691   30.1151    1.6038 H         1 UNK         0.0771 
    130 H130       36.0819   29.4014    2.6869 H         1 UNK         0.2980 
    131 H131       37.6769   28.2264    3.6213 H         1 UNK         0.0545 
    132 H132       37.2893   31.1400    4.6524 H         1 UNK         0.3459 
    133 H133       38.4066   31.1700    5.9939 H         1 UNK         0.3459 
    134 H134       37.2071   26.6247    5.4833 H         1 UNK         0.0616 
    135 H135       35.6692   27.3851    5.7744 H         1 UNK         0.0616 
    136 H136       33.7564   25.8731    5.1454 H         1 UNK         0.0634 
    137 H137       33.5846   27.2054    4.0315 H         1 UNK         0.0634 
@<TRIPOS>BOND
     1    1    2 1    
     2    1   72 1    
     3    1   73 1    
     4    1   74 1    
     5    2    3 2    
     6    2    4 am   BACKBONE|DICT|INTERRES
     7    4    5 1    
     8    4   75 1    
     9    5    6 1    
    10    5   35 1    
    11    5   76 1    
    12    6    7 1    
    13    6   77 1    
    14    6   78 1    
    15    7    8 1    
    16    8    9 1    
    17    8   79 1    
    18    8   80 1    
    19    9   10 ar   
    20    9   14 ar   
    21   10   11 ar   
    22   10   81 1    
    23   11   12 ar   
    24   11   71 1    
    25   12   13 ar   
    26   12   82 1    
    27   13   14 ar   
    28   13   15 1    
    29   14   83 1    
    30   15   16 1    
    31   15   84 1    
    32   15   85 1    
    33   16   17 1    
    34   17   18 1    
    35   17   86 1    
    36   17   87 1    
    37   18   19 1    
    38   18   37 1    
    39   18   88 1    
    40   19   20 am   BACKBONE|DICT|INTERRES
    41   19   89 1    
    42   20   21 2    
    43   20   22 1    
    44   22   23 1    
    45   22   24 1    
    46   22   90 1    
    47   23   91 1    
    48   23   92 1    
    49   23   93 1    
    50   24   25 am   BACKBONE|DICT|INTERRES
    51   24   94 1    
    52   25   26 2    
    53   25   27 1    
    54   27   28 1    
    55   27   29 1    
    56   27   95 1    
    57   28   96 1    
    58   28   97 1    
    59   28   98 1    
    60   29   30 am   BACKBONE|DICT|INTERRES
    61   29   99 1    
    62   30   31 2    
    63   30   32 1    
    64   32   33 1    
    65   32   34 1    
    66   32  100 1    
    67   33  101 1    
    68   33  102 1    
    69   33  103 1    
    70   34   35 am   BACKBONE|DICT|INTERRES
    71   34  104 1    
    72   35   36 2    
    73   37   38 2    
    74   37   39 am   BACKBONE|DICT|INTERRES
    75   39   40 1    
    76   39  105 1    
    77   40   41 1    
    78   40   42 1    
    79   40  106 1    
    80   41  107 1    
    81   41  108 1    
    82   41  109 1    
    83   42   43 2    
    84   42   44 am   BACKBONE|DICT|INTERRES
    85   44   45 1    
    86   44  110 1    
    87   45   46 1    
    88   45   47 1    
    89   45  111 1    
    90   46  112 1    
    91   46  113 1    
    92   46  114 1    
    93   47   48 2    
    94   47   49 am   BACKBONE|DICT|INTERRES
    95   49   50 1    
    96   49  115 1    
    97   50   51 1    
    98   50   52 1    
    99   50  116 1    
   100   51  117 1    
   101   51  118 1    
   102   51  119 1    
   103   52   53 2    
   104   52   54 am   BACKBONE|DICT|INTERRES
   105   54   55 1    
   106   54  120 1    
   107   55   56 1    
   108   55   57 1    
   109   55  121 1    
   110   56  122 1    
   111   56  123 1    
   112   56  124 1    
   113   57   58 2    
   114   57   59 am   BACKBONE|DICT|INTERRES
   115   59   60 1    
   116   59  125 1    
   117   60   61 1    
   118   60   62 1    
   119   60  126 1    
   120   61  127 1    
   121   61  128 1    
   122   61  129 1    
   123   62   63 2    
   124   62   64 am   BACKBONE|DICT|INTERRES
   125   64   65 1    
   126   64  130 1    
   127   65   66 1    
   128   65   69 1    
   129   65  131 1    
   130   66   67 am   BACKBONE|DICT|INTERRES
   131   66   68 2    
   132   67  132 1    
   133   67  133 1    
   134   69   70 1    
   135   69  134 1    
   136   69  135 1    
   137   70   71 1    
   138   71  136 1    
   139   71  137 1    
@<TRIPOS>SUBSTRUCTURE
     1 UNK         1 GROUP             0       ****    0 ROOT    
