@<TRIPOS>MOLECULE
3R136
137   139    1
SMALL
USER_CHARGES


@<TRIPOS>ATOM
      1 CA         27.4102   23.6168   -2.8460 C.3       0 UNK        -0.1979 
      2 C          28.2716   22.3580   -2.7883 C.2       0 UNK         0.4864 
      3 O          28.4890   21.7301   -3.8236 O.2       0 UNK        -0.5359 
      4 N          28.7939   21.9548   -1.6215 N.am      1 UNK        -0.4318 
      5 CA         28.5831   22.5532   -0.2967 C.3       1 UNK         0.0824 
      6 C6         29.7232   22.1765    0.6839 C.3       12 UNK        -0.0944 
      7 S7         31.3622   22.7610    0.1292 S.3       12 UNK        -0.2672 
      8 C8         31.2691   24.5613    0.4101 C.3       12 UNK         0.0333 
      9 C9         31.1444   24.9171    1.8844 C.ar      12 UNK        -0.0807 
     10 C10        32.2826   24.9710    2.6922 C.ar      12 UNK        -0.0894 
     11 C11        32.1782   25.3149    4.0425 C.ar      12 UNK        -0.0804 
     12 C12        30.9211   25.6053    4.5824 C.ar      12 UNK        -0.0824 
     13 C13        29.7694   25.5565    3.7883 C.ar      12 UNK        -0.0762 
     14 C14        29.8940   25.2061    2.4377 C.ar      12 UNK        -0.0782 
     15 C15        28.4143   25.8428    4.4409 C.3       12 UNK         0.0230 
     16 S16        27.0792   26.3699    3.3078 S.3       12 UNK        -0.2608 
     17 C17        27.6538   28.0219    2.7822 C.3       12 UNK        -0.0989 
     18 CA         27.9926   28.0955    1.2673 C.3       5 UNK         0.0716 
     19 N          26.8262   27.9029    0.4055 N.am      5 UNK        -0.4135 
     20 C          26.5145   26.7536   -0.1988 C.2       4 UNK         0.5031 
     21 O          27.1905   25.7227   -0.1166 O.2       4 UNK        -0.5229 
     22 CA         25.2375   26.7411   -1.0453 C.3       4 UNK         0.0329 
     23 CB         25.5258   27.1475   -2.5006 C.3       4 UNK        -0.2001 
     24 N          24.7295   25.3793   -0.9934 N.am      4 UNK        -0.4303 
     25 C          23.4629   24.9744   -1.1251 C.2       3 UNK         0.5044 
     26 O          22.5327   25.7119   -1.4521 O.2       3 UNK        -0.5152 
     27 CA         23.1892   23.4889   -0.8127 C.3       3 UNK         0.0319 
     28 CB         23.1656   22.6602   -2.1070 C.3       3 UNK        -0.2001 
     29 N          24.1771   22.9146    0.1093 N.am      3 UNK        -0.4354 
     30 C          24.3086   23.2482    1.4006 C.2       2 UNK         0.4964 
     31 O          23.5144   23.9731    1.9998 O.2       2 UNK        -0.5047 
     32 CA         25.5585   22.7379    2.1391 C.3       2 UNK         0.0288 
     33 CB         25.3523   21.3106    2.6839 C.3       2 UNK        -0.2113 
     34 N          26.8068   22.8636    1.3670 N.am      2 UNK        -0.4145 
     35 C          27.2036   22.1742    0.2860 C.2       1 UNK         0.5006 
     36 O          26.5212   21.2984   -0.2523 O.2       1 UNK        -0.5103 
     37 C          28.6671   29.4160    0.8717 C.2       5 UNK         0.5055 
     38 O          28.7258   30.3483    1.6727 O.2       5 UNK        -0.5220 
     39 N          29.1916   29.4736   -0.3611 N.am      6 UNK        -0.4450 
     40 CA         29.9909   30.6000   -0.8656 C.3       6 UNK         0.0367 
     41 CB         30.2737   30.3933   -2.3622 C.3       6 UNK        -0.1929 
     42 C          31.3087   30.8071   -0.0902 C.2       6 UNK         0.5070 
     43 O          31.8226   31.9243   -0.0441 O.2       6 UNK        -0.5237 
     44 N          31.8101   29.7315    0.5319 N.am      7 UNK        -0.4739 
     45 CA         32.9924   29.7123    1.3924 C.3       7 UNK         0.0276 
     46 CB         33.5112   28.2684    1.4754 C.3       7 UNK        -0.1927 
     47 C          32.7553   30.2780    2.8062 C.2       7 UNK         0.5013 
     48 O          33.7163   30.3442    3.5733 O.2       7 UNK        -0.5193 
     49 N          31.5197   30.6858    3.1471 N.am      8 UNK        -0.4253 
     50 CA         31.1201   31.2053    4.4662 C.3       8 UNK         0.0242 
     51 CB         29.6260   31.5618    4.4584 C.3       8 UNK        -0.2000 
     52 C          31.9468   32.3936    4.9922 C.2       8 UNK         0.4948 
     53 O          32.0342   32.5638    6.2077 O.2       8 UNK        -0.5275 
     54 N          32.5824   33.1567    4.0914 N.am      9 UNK        -0.4246 
     55 CA         33.5633   34.1957    4.4208 C.3       9 UNK         0.0261 
     56 CB         33.9686   34.9325    3.1340 C.3       9 UNK        -0.1959 
     57 C          34.8132   33.6622    5.1528 C.2       9 UNK         0.5033 
     58 O          35.4215   34.4148    5.9153 O.2       9 UNK        -0.5390 
     59 N          35.1644   32.3895    4.9211 N.am      10 UNK        -0.4215 
     60 CA         36.2336   31.6703    5.6126 C.3       10 UNK         0.0240 
     61 CB         37.1158   30.9518    4.5774 C.3       10 UNK        -0.1982 
     62 C          35.6572   30.6620    6.6188 C.2       10 UNK         0.4970 
     63 O          36.1706   30.5712    7.7346 O.2       10 UNK        -0.4916 
     64 N          34.6201   29.9176    6.2106 N.am      11 UNK        -0.4279 
     65 CA         33.9797   28.8614    7.0110 C.3       11 UNK         0.1003 
     66 C          33.1385   29.3659    8.2179 C.2       11 UNK         0.5709 
     67 N          32.6847   30.6123    8.2527 N.am      11 UNK        -0.7358 
     68 O          32.9014   28.6060    9.1539 O.2       11 UNK        -0.4999 
     69 C69        33.1552   27.8909    6.1247 C.3       12 UNK        -0.0954 
     70 S70        34.1989   26.9960    4.9260 S.3       12 UNK        -0.2268 
     71 C71        33.4249   25.3489    4.9156 C.3       12 UNK         0.0203 
     72 H72        26.5094   23.4984   -2.2478 H         1 UNK         0.0888 
     73 H73        27.9629   24.4854   -2.4893 H         1 UNK         0.0888 
     74 H74        27.1003   23.8221   -3.8704 H         1 UNK         0.0888 
     75 H75        29.3530   21.1144   -1.6184 H         1 UNK         0.3017 
     76 H76        28.5903   23.6354   -0.4102 H         1 UNK         0.0873 
     77 H77        29.7773   21.0922    0.7987 H         1 UNK         0.0745 
     78 H78        29.5414   22.5656    1.6863 H         1 UNK         0.0745 
     79 H79        32.1723   25.0205    0.0052 H         1 UNK         0.0705 
     80 H80        30.4420   24.9858   -0.1602 H         1 UNK         0.0705 
     81 H81        33.2518   24.7459    2.2680 H         1 UNK         0.1334 
     82 H82        30.8385   25.8609    5.6299 H         1 UNK         0.1417 
     83 H83        29.0191   25.1503    1.8076 H         1 UNK         0.1562 
     84 H84        28.5272   26.6033    5.2153 H         1 UNK         0.0748 
     85 H85        28.0867   24.9354    4.9499 H         1 UNK         0.0748 
     86 H86        28.5274   28.2918    3.3791 H         1 UNK         0.0940 
     87 H87        26.8818   28.7505    3.0363 H         1 UNK         0.0940 
     88 H88        28.7379   27.3286    1.0542 H         1 UNK         0.0703 
     89 H89        26.2377   28.7133    0.2703 H         1 UNK         0.3081 
     90 H90        24.5047   27.4191   -0.6027 H         1 UNK         0.0719 
     91 H91        24.6212   27.1126   -3.1079 H         1 UNK         0.0809 
     92 H92        26.2640   26.4920   -2.9641 H         1 UNK         0.0809 
     93 H93        25.9124   28.1659   -2.5540 H         1 UNK         0.0809 
     94 H94        25.4209   24.7157   -0.6695 H         1 UNK         0.2990 
     95 H95        22.2055   23.4247   -0.3430 H         1 UNK         0.0690 
     96 H96        22.9074   21.6201   -1.9068 H         1 UNK         0.0788 
     97 H97        24.1300   22.6744   -2.6160 H         1 UNK         0.0788 
     98 H98        22.4226   23.0488   -2.8050 H         1 UNK         0.0788 
     99 H99        24.8633   22.2714   -0.2763 H         1 UNK         0.2993 
    100 H100       25.6896   23.3940    3.0017 H         1 UNK         0.0949 
    101 H101       26.2199   20.9745    3.2518 H         1 UNK         0.0767 
    102 H102       24.4924   21.2737    3.3541 H         1 UNK         0.0767 
    103 H103       25.1703   20.5872    1.8888 H         1 UNK         0.0767 
    104 H104       27.4066   23.6123    1.6838 H         1 UNK         0.3013 
    105 H105       29.0827   28.6791   -0.9756 H         1 UNK         0.3121 
    106 H106       29.3989   31.5105   -0.7502 H         1 UNK         0.0774 
    107 H107       30.8438   31.2296   -2.7696 H         1 UNK         0.0815 
    108 H108       30.8521   29.4865   -2.5438 H         1 UNK         0.0815 
    109 H109       29.3493   30.3248   -2.9360 H         1 UNK         0.0815 
    110 H110       31.3206   28.8555    0.4263 H         1 UNK         0.2987 
    111 H111       33.7668   30.3277    0.9293 H         1 UNK         0.0949 
    112 H112       32.7925   27.6168    1.9721 H         1 UNK         0.0806 
    113 H113       33.7161   27.8567    0.4871 H         1 UNK         0.0806 
    114 H114       34.4410   28.2174    2.0438 H         1 UNK         0.0806 
    115 H115       30.7797   30.6057    2.4598 H         1 UNK         0.3010 
    116 H116       31.2604   30.3954    5.1828 H         1 UNK         0.0829 
    117 H117       29.0096   30.6782    4.2951 H         1 UNK         0.0813 
    118 H118       29.3171   31.9911    5.4127 H         1 UNK         0.0813 
    119 H119       29.3882   32.2881    3.6802 H         1 UNK         0.0813 
    120 H120       32.4450   32.9510    3.1121 H         1 UNK         0.3038 
    121 H121       33.0758   34.9102    5.0874 H         1 UNK         0.0769 
    122 H122       34.6804   35.7308    3.3495 H         1 UNK         0.0811 
    123 H123       33.1065   35.3922    2.6503 H         1 UNK         0.0811 
    124 H124       34.4401   34.2610    2.4152 H         1 UNK         0.0811 
    125 H125       34.5873   31.8303    4.2974 H         1 UNK         0.3204 
    126 H126       36.8650   32.3685    6.1661 H         1 UNK         0.0748 
    127 H127       37.9231   30.4041    5.0654 H         1 UNK         0.0771 
    128 H128       36.5459   30.2349    3.9843 H         1 UNK         0.0771 
    129 H129       37.5753   31.6625    3.8903 H         1 UNK         0.0771 
    130 H130       34.2766   30.0220    5.2591 H         1 UNK         0.2980 
    131 H131       34.7876   28.2754    7.4541 H         1 UNK         0.0545 
    132 H132       32.7995   31.2472    7.4709 H         1 UNK         0.3459 
    133 H133       32.1512   30.9105    9.0530 H         1 UNK         0.3459 
    134 H134       32.3795   28.4241    5.5753 H         1 UNK         0.0616 
    135 H135       32.6397   27.1594    6.7490 H         1 UNK         0.0616 
    136 H136       34.1540   24.6289    4.5410 H         1 UNK         0.0634 
    137 H137       33.1914   25.0348    5.9339 H         1 UNK         0.0634 
@<TRIPOS>BOND
     1    1    2 1    
     2    1   72 1    
     3    1   73 1    
     4    1   74 1    
     5    2    3 2    
     6    2    4 am   BACKBONE|DICT|INTERRES
     7    4    5 1    
     8    4   75 1    
     9    5    6 1    
    10    5   35 1    
    11    5   76 1    
    12    6    7 1    
    13    6   77 1    
    14    6   78 1    
    15    7    8 1    
    16    8    9 1    
    17    8   79 1    
    18    8   80 1    
    19    9   10 ar   
    20    9   14 ar   
    21   10   11 ar   
    22   10   81 1    
    23   11   12 ar   
    24   11   71 1    
    25   12   13 ar   
    26   12   82 1    
    27   13   14 ar   
    28   13   15 1    
    29   14   83 1    
    30   15   16 1    
    31   15   84 1    
    32   15   85 1    
    33   16   17 1    
    34   17   18 1    
    35   17   86 1    
    36   17   87 1    
    37   18   19 1    
    38   18   37 1    
    39   18   88 1    
    40   19   20 am   BACKBONE|DICT|INTERRES
    41   19   89 1    
    42   20   21 2    
    43   20   22 1    
    44   22   23 1    
    45   22   24 1    
    46   22   90 1    
    47   23   91 1    
    48   23   92 1    
    49   23   93 1    
    50   24   25 am   BACKBONE|DICT|INTERRES
    51   24   94 1    
    52   25   26 2    
    53   25   27 1    
    54   27   28 1    
    55   27   29 1    
    56   27   95 1    
    57   28   96 1    
    58   28   97 1    
    59   28   98 1    
    60   29   30 am   BACKBONE|DICT|INTERRES
    61   29   99 1    
    62   30   31 2    
    63   30   32 1    
    64   32   33 1    
    65   32   34 1    
    66   32  100 1    
    67   33  101 1    
    68   33  102 1    
    69   33  103 1    
    70   34   35 am   BACKBONE|DICT|INTERRES
    71   34  104 1    
    72   35   36 2    
    73   37   38 2    
    74   37   39 am   BACKBONE|DICT|INTERRES
    75   39   40 1    
    76   39  105 1    
    77   40   41 1    
    78   40   42 1    
    79   40  106 1    
    80   41  107 1    
    81   41  108 1    
    82   41  109 1    
    83   42   43 2    
    84   42   44 am   BACKBONE|DICT|INTERRES
    85   44   45 1    
    86   44  110 1    
    87   45   46 1    
    88   45   47 1    
    89   45  111 1    
    90   46  112 1    
    91   46  113 1    
    92   46  114 1    
    93   47   48 2    
    94   47   49 am   BACKBONE|DICT|INTERRES
    95   49   50 1    
    96   49  115 1    
    97   50   51 1    
    98   50   52 1    
    99   50  116 1    
   100   51  117 1    
   101   51  118 1    
   102   51  119 1    
   103   52   53 2    
   104   52   54 am   BACKBONE|DICT|INTERRES
   105   54   55 1    
   106   54  120 1    
   107   55   56 1    
   108   55   57 1    
   109   55  121 1    
   110   56  122 1    
   111   56  123 1    
   112   56  124 1    
   113   57   58 2    
   114   57   59 am   BACKBONE|DICT|INTERRES
   115   59   60 1    
   116   59  125 1    
   117   60   61 1    
   118   60   62 1    
   119   60  126 1    
   120   61  127 1    
   121   61  128 1    
   122   61  129 1    
   123   62   63 2    
   124   62   64 am   BACKBONE|DICT|INTERRES
   125   64   65 1    
   126   64  130 1    
   127   65   66 1    
   128   65   69 1    
   129   65  131 1    
   130   66   67 am   BACKBONE|DICT|INTERRES
   131   66   68 2    
   132   67  132 1    
   133   67  133 1    
   134   69   70 1    
   135   69  134 1    
   136   69  135 1    
   137   70   71 1    
   138   71  136 1    
   139   71  137 1    
@<TRIPOS>SUBSTRUCTURE
     1 UNK         1 GROUP             0       ****    0 ROOT    
