@<TRIPOS>MOLECULE
3R136
137   139    1
SMALL
USER_CHARGES


@<TRIPOS>ATOM
      1 CA         24.6737   19.3649   -0.3262 C.3       0 UNK        -0.1979 
      2 C          26.1698   19.6424   -0.3471 C.2       0 UNK         0.4864 
      3 O          26.9144   18.9310   -1.0236 O.2       0 UNK        -0.5359 
      4 N          26.6160   20.6654    0.3936 N.am      1 UNK        -0.4318 
      5 CA         28.0086   21.1174    0.4394 C.3       1 UNK         0.0824 
      6 C6         28.2472   22.0515    1.6514 C.3       12 UNK        -0.0944 
      7 S7         30.0182   22.3523    1.9877 S.3       12 UNK        -0.2672 
      8 C8         30.1060   22.1729    3.7987 C.3       12 UNK         0.0333 
      9 C9         29.5873   23.4114    4.5174 C.ar      12 UNK        -0.0807 
     10 C10        30.4769   24.3882    4.9759 C.ar      12 UNK        -0.0894 
     11 C11        30.0046   25.5209    5.6482 C.ar      12 UNK        -0.0804 
     12 C12        28.6307   25.6788    5.8533 C.ar      12 UNK        -0.0824 
     13 C13        27.7315   24.7197    5.3778 C.ar      12 UNK        -0.0762 
     14 C14        28.2173   23.5795    4.7335 C.ar      12 UNK        -0.0782 
     15 C15        26.2313   24.9137    5.5300 C.3       12 UNK         0.0230 
     16 S16        25.4591   25.3093    3.9270 S.3       12 UNK        -0.2608 
     17 C17        25.9109   27.0653    3.7128 C.3       12 UNK        -0.0989 
     18 CA         27.2449   27.2936    2.9443 C.3       5 UNK         0.0716 
     19 N          27.3233   26.5967    1.6566 N.am      5 UNK        -0.4135 
     20 C          26.6111   26.8606    0.5528 C.2       4 UNK         0.5031 
     21 O          25.7054   27.6952    0.5057 O.2       4 UNK        -0.5229 
     22 CA         26.9849   26.0683   -0.7198 C.3       4 UNK         0.0329 
     23 CB         26.7146   26.8779   -2.0054 C.3       4 UNK        -0.2001 
     24 N          28.3580   25.5369   -0.7454 N.am      4 UNK        -0.4303 
     25 C          29.5052   26.2275   -0.6181 C.2       3 UNK         0.5044 
     26 O          29.5466   27.4260   -0.3414 O.2       3 UNK        -0.5152 
     27 CA         30.8367   25.4673   -0.7778 C.3       3 UNK         0.0319 
     28 CB         31.6503   25.5284    0.5239 C.3       3 UNK        -0.2001 
     29 N          30.6686   24.0668   -1.1674 N.am      3 UNK        -0.4354 
     30 C          30.4448   23.6394   -2.4188 C.2       2 UNK         0.4964 
     31 O          30.4306   24.3782   -3.4033 O.2       2 UNK        -0.5047 
     32 CA         30.1574   22.1365   -2.5999 C.3       2 UNK         0.0288 
     33 CB         31.4387   21.3879   -3.0013 C.3       2 UNK        -0.2113 
     34 N          29.5788   21.5017   -1.4095 N.am      2 UNK        -0.4145 
     35 C          28.3865   21.8143   -0.8818 C.2       1 UNK         0.5006 
     36 O          27.6289   22.6644   -1.3574 O.2       1 UNK        -0.5103 
     37 C          27.6068   28.7940    2.8327 C.2       5 UNK         0.5055 
     38 O          27.0129   29.6176    3.5338 O.2       5 UNK        -0.5220 
     39 N          28.5725   29.1382    1.9645 N.am      6 UNK        -0.4450 
     40 CA         29.0780   30.4986    1.7455 C.3       6 UNK         0.0367 
     41 CB         29.8550   30.5386    0.4174 C.3       6 UNK        -0.1929 
     42 C          29.9183   31.0318    2.9254 C.2       6 UNK         0.5070 
     43 O          31.0995   31.3410    2.7612 O.2       6 UNK        -0.5237 
     44 N          29.2887   31.1579    4.0993 N.am      7 UNK        -0.4739 
     45 CA         29.8825   31.6624    5.3431 C.3       7 UNK         0.0276 
     46 CB         28.9062   31.4105    6.5024 C.3       7 UNK        -0.1927 
     47 C          30.2919   33.1450    5.2817 C.2       7 UNK         0.5013 
     48 O          31.1449   33.5681    6.0617 O.2       7 UNK        -0.5193 
     49 N          29.7030   33.8964    4.3404 N.am      8 UNK        -0.4253 
     50 CA         30.0943   35.2626    3.9862 C.3       8 UNK         0.0242 
     51 CB         28.9816   35.8968    3.1352 C.3       8 UNK        -0.2000 
     52 C          31.4464   35.3364    3.2477 C.2       8 UNK         0.4948 
     53 O          32.0485   36.4109    3.2203 O.2       8 UNK        -0.5275 
     54 N          31.8928   34.2144    2.6648 N.am      9 UNK        -0.4246 
     55 CA         33.2023   34.0444    2.0462 C.3       9 UNK         0.0261 
     56 CB         33.0311   33.3769    0.6651 C.3       9 UNK        -0.1959 
     57 C          34.0780   33.2495    3.0277 C.2       9 UNK         0.5033 
     58 O          34.5324   33.8235    4.0191 O.2       9 UNK        -0.5390 
     59 N          34.2952   31.9581    2.7543 N.am      10 UNK        -0.4215 
     60 CA         35.0826   31.0408    3.5725 C.3       10 UNK         0.0240 
     61 CB         36.5905   31.3511    3.4423 C.3       10 UNK        -0.1982 
     62 C          34.7432   29.6032    3.1611 C.2       10 UNK         0.4970 
     63 O          35.5231   28.9731    2.4445 O.2       10 UNK        -0.4916 
     64 N          33.5739   29.1154    3.5941 N.am      11 UNK        -0.4279 
     65 CA         33.1278   27.7286    3.3703 C.3       11 UNK         0.1003 
     66 C          33.9323   26.6333    4.1312 C.2       11 UNK         0.5709 
     67 N          34.7350   26.9714    5.1337 N.am      11 UNK        -0.7358 
     68 O          33.8302   25.4555    3.7986 O.2       11 UNK        -0.4999 
     69 C69        31.5958   27.5624    3.5595 C.3       12 UNK        -0.0954 
     70 S70        30.9605   28.1012    5.1852 S.3       12 UNK        -0.2268 
     71 C71        30.9792   26.5672    6.1689 C.3       12 UNK         0.0203 
     72 H72        24.4845   18.3538    0.0332 H         1 UNK         0.0888 
     73 H73        24.1387   20.0601    0.3207 H         1 UNK         0.0888 
     74 H74        24.2623   19.4525   -1.3314 H         1 UNK         0.0888 
     75 H75        25.9529   21.2329    0.9015 H         1 UNK         0.3017 
     76 H76        28.6346   20.2303    0.5618 H         1 UNK         0.0873 
     77 H77        27.7390   23.0101    1.5266 H         1 UNK         0.0745 
     78 H78        27.8050   21.5881    2.5333 H         1 UNK         0.0745 
     79 H79        29.5527   21.2878    4.1162 H         1 UNK         0.0705 
     80 H80        31.1454   21.9919    4.0769 H         1 UNK         0.0705 
     81 H81        31.5389   24.2652    4.8110 H         1 UNK         0.1334 
     82 H82        28.2636   26.5609    6.3603 H         1 UNK         0.1417 
     83 H83        27.5174   22.8349    4.3832 H         1 UNK         0.1562 
     84 H84        26.0033   25.6928    6.2589 H         1 UNK         0.0748 
     85 H85        25.7884   23.9949    5.9173 H         1 UNK         0.0748 
     86 H86        25.9524   27.5330    4.6982 H         1 UNK         0.0940 
     87 H87        25.0891   27.5562    3.1883 H         1 UNK         0.0940 
     88 H88        28.0490   26.8663    3.5401 H         1 UNK         0.0703 
     89 H89        28.0329   25.8825    1.5916 H         1 UNK         0.3081 
     90 H90        26.3266   25.1983   -0.7324 H         1 UNK         0.0719 
     91 H91        27.3033   27.7957   -2.0330 H         1 UNK         0.0809 
     92 H92        26.9552   26.2980   -2.8965 H         1 UNK         0.0809 
     93 H93        25.6642   27.1614   -2.0810 H         1 UNK         0.0809 
     94 H94        28.4187   24.5474   -0.9592 H         1 UNK         0.2990 
     95 H95        31.4071   25.9809   -1.5546 H         1 UNK         0.0690 
     96 H96        32.6061   25.0136    0.4248 H         1 UNK         0.0788 
     97 H97        31.1135   25.0840    1.3624 H         1 UNK         0.0788 
     98 H98        31.8683   26.5633    0.7852 H         1 UNK         0.0788 
     99 H99        30.6706   23.3872   -0.4190 H         1 UNK         0.2993 
    100 H100       29.4334   22.0415   -3.4124 H         1 UNK         0.0949 
    101 H101       31.8785   21.8217   -3.9007 H         1 UNK         0.0767 
    102 H102       32.1947   21.4301   -2.2159 H         1 UNK         0.0767 
    103 H103       31.2348   20.3388   -3.2170 H         1 UNK         0.0767 
    104 H104       30.1456   20.8025   -0.9506 H         1 UNK         0.3013 
    105 H105       28.9770   28.4192    1.3728 H         1 UNK         0.3121 
    106 H106       28.2187   31.1641    1.6408 H         1 UNK         0.0774 
    107 H107       30.7340   29.8931    0.4456 H         1 UNK         0.0815 
    108 H108       30.1966   31.5497    0.1929 H         1 UNK         0.0815 
    109 H109       29.2313   30.2173   -0.4170 H         1 UNK         0.0815 
    110 H110       28.3297   30.8204    4.1445 H         1 UNK         0.2987 
    111 H111       30.7940   31.0918    5.5315 H         1 UNK         0.0949 
    112 H112       27.9618   31.9362    6.3564 H         1 UNK         0.0806 
    113 H113       28.6869   30.3477    6.6092 H         1 UNK         0.0806 
    114 H114       29.3275   31.7499    7.4498 H         1 UNK         0.0806 
    115 H115       28.9948   33.4601    3.7681 H         1 UNK         0.3010 
    116 H116       30.1939   35.8391    4.9086 H         1 UNK         0.0829 
    117 H117       28.0321   35.9138    3.6706 H         1 UNK         0.0813 
    118 H118       29.2260   36.9293    2.8810 H         1 UNK         0.0813 
    119 H119       28.8316   35.3582    2.1986 H         1 UNK         0.0813 
    120 H120       31.3658   33.3563    2.7899 H         1 UNK         0.3038 
    121 H121       33.6861   35.0112    1.8924 H         1 UNK         0.0769 
    122 H122       32.5041   32.4244    0.7223 H         1 UNK         0.0811 
    123 H123       33.9977   33.1978    0.1921 H         1 UNK         0.0811 
    124 H124       32.4633   34.0208   -0.0067 H         1 UNK         0.0811 
    125 H125       33.8344   31.5490    1.9520 H         1 UNK         0.3204 
    126 H126       34.7937   31.1618    4.6189 H         1 UNK         0.0748 
    127 H127       37.1879   30.6260    3.9968 H         1 UNK         0.0771 
    128 H128       36.9203   31.3214    2.4031 H         1 UNK         0.0771 
    129 H129       36.8338   32.3360    3.8407 H         1 UNK         0.0771 
    130 H130       32.9563   29.6977    4.1414 H         1 UNK         0.2980 
    131 H131       33.3248   27.5222    2.3174 H         1 UNK         0.0545 
    132 H132       35.2548   26.2525    5.6114 H         1 UNK         0.3459 
    133 H133       34.8199   27.9320    5.4223 H         1 UNK         0.3459 
    134 H134       31.0867   28.1611    2.8045 H         1 UNK         0.0616 
    135 H135       31.2853   26.5365    3.3625 H         1 UNK         0.0616 
    136 H136       31.9926   26.1676    6.2087 H         1 UNK         0.0634 
    137 H137       30.7164   26.8158    7.1980 H         1 UNK         0.0634 
@<TRIPOS>BOND
     1    1    2 1    
     2    1   72 1    
     3    1   73 1    
     4    1   74 1    
     5    2    3 2    
     6    2    4 am   BACKBONE|DICT|INTERRES
     7    4    5 1    
     8    4   75 1    
     9    5    6 1    
    10    5   35 1    
    11    5   76 1    
    12    6    7 1    
    13    6   77 1    
    14    6   78 1    
    15    7    8 1    
    16    8    9 1    
    17    8   79 1    
    18    8   80 1    
    19    9   10 ar   
    20    9   14 ar   
    21   10   11 ar   
    22   10   81 1    
    23   11   12 ar   
    24   11   71 1    
    25   12   13 ar   
    26   12   82 1    
    27   13   14 ar   
    28   13   15 1    
    29   14   83 1    
    30   15   16 1    
    31   15   84 1    
    32   15   85 1    
    33   16   17 1    
    34   17   18 1    
    35   17   86 1    
    36   17   87 1    
    37   18   19 1    
    38   18   37 1    
    39   18   88 1    
    40   19   20 am   BACKBONE|DICT|INTERRES
    41   19   89 1    
    42   20   21 2    
    43   20   22 1    
    44   22   23 1    
    45   22   24 1    
    46   22   90 1    
    47   23   91 1    
    48   23   92 1    
    49   23   93 1    
    50   24   25 am   BACKBONE|DICT|INTERRES
    51   24   94 1    
    52   25   26 2    
    53   25   27 1    
    54   27   28 1    
    55   27   29 1    
    56   27   95 1    
    57   28   96 1    
    58   28   97 1    
    59   28   98 1    
    60   29   30 am   BACKBONE|DICT|INTERRES
    61   29   99 1    
    62   30   31 2    
    63   30   32 1    
    64   32   33 1    
    65   32   34 1    
    66   32  100 1    
    67   33  101 1    
    68   33  102 1    
    69   33  103 1    
    70   34   35 am   BACKBONE|DICT|INTERRES
    71   34  104 1    
    72   35   36 2    
    73   37   38 2    
    74   37   39 am   BACKBONE|DICT|INTERRES
    75   39   40 1    
    76   39  105 1    
    77   40   41 1    
    78   40   42 1    
    79   40  106 1    
    80   41  107 1    
    81   41  108 1    
    82   41  109 1    
    83   42   43 2    
    84   42   44 am   BACKBONE|DICT|INTERRES
    85   44   45 1    
    86   44  110 1    
    87   45   46 1    
    88   45   47 1    
    89   45  111 1    
    90   46  112 1    
    91   46  113 1    
    92   46  114 1    
    93   47   48 2    
    94   47   49 am   BACKBONE|DICT|INTERRES
    95   49   50 1    
    96   49  115 1    
    97   50   51 1    
    98   50   52 1    
    99   50  116 1    
   100   51  117 1    
   101   51  118 1    
   102   51  119 1    
   103   52   53 2    
   104   52   54 am   BACKBONE|DICT|INTERRES
   105   54   55 1    
   106   54  120 1    
   107   55   56 1    
   108   55   57 1    
   109   55  121 1    
   110   56  122 1    
   111   56  123 1    
   112   56  124 1    
   113   57   58 2    
   114   57   59 am   BACKBONE|DICT|INTERRES
   115   59   60 1    
   116   59  125 1    
   117   60   61 1    
   118   60   62 1    
   119   60  126 1    
   120   61  127 1    
   121   61  128 1    
   122   61  129 1    
   123   62   63 2    
   124   62   64 am   BACKBONE|DICT|INTERRES
   125   64   65 1    
   126   64  130 1    
   127   65   66 1    
   128   65   69 1    
   129   65  131 1    
   130   66   67 am   BACKBONE|DICT|INTERRES
   131   66   68 2    
   132   67  132 1    
   133   67  133 1    
   134   69   70 1    
   135   69  134 1    
   136   69  135 1    
   137   70   71 1    
   138   71  136 1    
   139   71  137 1    
@<TRIPOS>SUBSTRUCTURE
     1 UNK         1 GROUP             0       ****    0 ROOT    
