@<TRIPOS>MOLECULE
3R136
137   139    1
SMALL
USER_CHARGES


@<TRIPOS>ATOM
      1 CA         27.2235   21.4345    3.8678 C.3       0 UNK        -0.1979 
      2 C          27.1441   21.5687    2.3551 C.2       0 UNK         0.4864 
      3 O          26.1286   21.2020    1.7616 O.2       0 UNK        -0.5359 
      4 N          28.2144   22.0748    1.7265 N.am      1 UNK        -0.4318 
      5 CA         28.3015   22.3113    0.2861 C.3       1 UNK         0.0824 
      6 C6         29.7656   22.5540   -0.1812 C.3       12 UNK        -0.0944 
      7 S7         30.5765   24.0563    0.4851 S.3       12 UNK        -0.2672 
      8 C8         31.8429   23.4112    1.6331 C.3       12 UNK         0.0333 
      9 C9         31.7150   24.1023    2.9820 C.ar      12 UNK        -0.0807 
     10 C10        32.5457   25.1704    3.3381 C.ar      12 UNK        -0.0894 
     11 C11        32.3361   25.8615    4.5381 C.ar      12 UNK        -0.0804 
     12 C12        31.2717   25.4941    5.3683 C.ar      12 UNK        -0.0824 
     13 C13        30.4420   24.4265    5.0195 C.ar      12 UNK        -0.0762 
     14 C14        30.7059   23.7033    3.8565 C.ar      12 UNK        -0.0782 
     15 C15        29.2242   24.0749    5.8587 C.3       12 UNK         0.0230 
     16 S16        27.7834   25.1456    5.5038 S.3       12 UNK        -0.2608 
     17 C17        27.7790   25.3849    3.6848 C.3       12 UNK        -0.0989 
     18 CA         28.1708   26.8436    3.3124 C.3       5 UNK         0.0716 
     19 N          29.0880   26.9470    2.1658 N.am      5 UNK        -0.4135 
     20 C          29.7709   28.0699    1.8825 C.2       4 UNK         0.5031 
     21 O          29.7226   29.0868    2.5742 O.2       4 UNK        -0.5229 
     22 CA         30.6178   28.1169    0.5989 C.3       4 UNK         0.0329 
     23 CB         32.0517   27.6296    0.8517 C.3       4 UNK        -0.2001 
     24 N          30.0447   27.4115   -0.5479 N.am      4 UNK        -0.4303 
     25 C          28.8742   27.7164   -1.1225 C.2       3 UNK         0.5044 
     26 O          28.0970   28.5613   -0.6813 O.2       3 UNK        -0.5152 
     27 CA         28.4756   26.9296   -2.3730 C.3       3 UNK         0.0319 
     28 CB         29.6571   26.2709   -3.1175 C.3       3 UNK        -0.2001 
     29 N          27.5309   25.9175   -1.9365 N.am      3 UNK        -0.4354 
     30 C          26.5785   25.3310   -2.6626 C.2       2 UNK         0.4964 
     31 O          26.3457   25.6041   -3.8414 O.2       2 UNK        -0.5047 
     32 CA         25.7826   24.2254   -1.9372 C.3       2 UNK         0.0288 
     33 CB         24.8098   23.4812   -2.8712 C.3       2 UNK        -0.2113 
     34 N          26.6702   23.2474   -1.2940 N.am      2 UNK        -0.4145 
     35 C          27.3437   23.4406   -0.1504 C.2       1 UNK         0.5006 
     36 O          27.2699   24.4813    0.5147 O.2       1 UNK        -0.5103 
     37 C          26.9172   27.7181    3.1123 C.2       5 UNK         0.5055 
     38 O          26.5151   28.4288    4.0340 O.2       5 UNK        -0.5220 
     39 N          26.3401   27.6635    1.9025 N.am      6 UNK        -0.4450 
     40 CA         25.1628   28.4374    1.4998 C.3       6 UNK         0.0367 
     41 CB         24.6580   27.9312    0.1382 C.3       6 UNK        -0.1929 
     42 C          25.4285   29.9524    1.4602 C.2       6 UNK         0.5070 
     43 O          24.5824   30.7299    1.9022 O.2       6 UNK        -0.5237 
     44 N          26.6057   30.3409    0.9540 N.am      7 UNK        -0.4739 
     45 CA         27.0797   31.7260    0.9017 C.3       7 UNK         0.0276 
     46 CB         28.2186   31.8171   -0.1279 C.3       7 UNK        -0.1927 
     47 C          27.5566   32.2702    2.2611 C.2       7 UNK         0.5013 
     48 O          27.6789   33.4880    2.3985 O.2       7 UNK        -0.5193 
     49 N          27.8456   31.3705    3.2148 N.am      8 UNK        -0.4253 
     50 CA         28.4915   31.6148    4.5112 C.3       8 UNK         0.0242 
     51 CB         27.5842   32.4501    5.4394 C.3       8 UNK        -0.2000 
     52 C          29.9064   32.2053    4.3405 C.2       8 UNK         0.4948 
     53 O          30.2626   33.1805    5.0061 O.2       8 UNK        -0.5275 
     54 N          30.6719   31.6110    3.4181 N.am      9 UNK        -0.4246 
     55 CA         32.0352   32.0021    3.0675 C.3       9 UNK         0.0261 
     56 CB         32.2818   31.6362    1.5937 C.3       9 UNK        -0.1959 
     57 C          33.0635   31.3093    3.9754 C.2       9 UNK         0.5033 
     58 O          32.7340   30.3472    4.6739 O.2       9 UNK        -0.5390 
     59 N          34.3070   31.8016    3.9264 N.am      10 UNK        -0.4215 
     60 CA         35.4609   31.1990    4.5948 C.3       10 UNK         0.0240 
     61 CB         36.6003   32.2301    4.6560 C.3       10 UNK        -0.1982 
     62 C          35.9269   29.9237    3.8706 C.2       10 UNK         0.4970 
     63 O          35.7912   29.8252    2.6484 O.2       10 UNK        -0.4916 
     64 N          36.4996   28.9951    4.6396 N.am      11 UNK        -0.4279 
     65 CA         37.0093   27.6955    4.1730 C.3       11 UNK         0.1003 
     66 C          38.2412   27.1887    4.9792 C.2       11 UNK         0.5709 
     67 N          38.8798   28.0114    5.8048 N.am      11 UNK        -0.7358 
     68 O          38.6484   26.0378    4.8386 O.2       11 UNK        -0.4999 
     69 C69        35.8799   26.6356    4.0161 C.3       12 UNK        -0.0954 
     70 S70        34.8553   26.4418    5.5183 S.3       12 UNK        -0.2268 
     71 C71        33.2335   27.0251    4.9315 C.3       12 UNK         0.0203 
     72 H72        26.6314   20.5839    4.2047 H         1 UNK         0.0888 
     73 H73        28.2483   21.2759    4.2008 H         1 UNK         0.0888 
     74 H74        26.8318   22.3315    4.3466 H         1 UNK         0.0888 
     75 H75        29.0136   22.3818    2.2545 H         1 UNK         0.3017 
     76 H76        27.9629   21.3924   -0.1981 H         1 UNK         0.0873 
     77 H77        29.7922   22.6290   -1.2699 H         1 UNK         0.0745 
     78 H78        30.3724   21.6785    0.0530 H         1 UNK         0.0745 
     79 H79        31.7422   22.3330    1.7629 H         1 UNK         0.0705 
     80 H80        32.8325   23.5800    1.2059 H         1 UNK         0.0705 
     81 H81        33.3447   25.4747    2.6770 H         1 UNK         0.1334 
     82 H82        31.0755   26.0486    6.2758 H         1 UNK         0.1417 
     83 H83        30.0740   22.8700    3.5961 H         1 UNK         0.1562 
     84 H84        29.4721   24.1606    6.9177 H         1 UNK         0.0748 
     85 H85        28.9418   23.0337    5.7042 H         1 UNK         0.0748 
     86 H86        26.7892   25.1174    3.3078 H         1 UNK         0.0940 
     87 H87        28.4370   24.6700    3.2010 H         1 UNK         0.0940 
     88 H88        28.7169   27.2722    4.1565 H         1 UNK         0.0703 
     89 H89        29.1781   26.1413    1.5620 H         1 UNK         0.3081 
     90 H90        30.6779   29.1689    0.3132 H         1 UNK         0.0719 
     91 H91        32.0930   26.5479    0.9613 H         1 UNK         0.0809 
     92 H92        32.7122   27.9047    0.0294 H         1 UNK         0.0809 
     93 H93        32.4669   28.0696    1.7597 H         1 UNK         0.0809 
     94 H94        30.6026   26.6735   -0.9529 H         1 UNK         0.2990 
     95 H95        27.9755   27.6272   -3.0482 H         1 UNK         0.0690 
     96 H96        30.4240   27.0049   -3.3689 H         1 UNK         0.0788 
     97 H97        29.3244   25.8251   -4.0551 H         1 UNK         0.0788 
     98 H98        30.1262   25.4798   -2.5308 H         1 UNK         0.0788 
     99 H99        27.6134   25.6223   -0.9672 H         1 UNK         0.2993 
    100 H100       25.1889   24.7172   -1.1633 H         1 UNK         0.0949 
    101 H101       24.2298   22.7355   -2.3269 H         1 UNK         0.0767 
    102 H102       24.0982   24.1719   -3.3259 H         1 UNK         0.0767 
    103 H103       25.3356   22.9734   -3.6808 H         1 UNK         0.0767 
    104 H104       26.8103   22.3827   -1.7968 H         1 UNK         0.3013 
    105 H105       26.7504   27.0617    1.2030 H         1 UNK         0.3121 
    106 H106       24.3799   28.2597    2.2402 H         1 UNK         0.0774 
    107 H107       23.7664   28.4771   -0.1728 H         1 UNK         0.0815 
    108 H108       25.4059   28.0573   -0.6457 H         1 UNK         0.0815 
    109 H109       24.3914   26.8752    0.1816 H         1 UNK         0.0815 
    110 H110       27.2102   29.6365    0.5338 H         1 UNK         0.2987 
    111 H111       26.2576   32.3612    0.5646 H         1 UNK         0.0949 
    112 H112       29.0693   31.1981    0.1601 H         1 UNK         0.0806 
    113 H113       27.8885   31.4924   -1.1148 H         1 UNK         0.0806 
    114 H114       28.5785   32.8421   -0.2266 H         1 UNK         0.0806 
    115 H115       27.7274   30.3947    2.9741 H         1 UNK         0.3010 
    116 H116       28.6238   30.6347    4.9727 H         1 UNK         0.0829 
    117 H117       27.4454   33.4656    5.0677 H         1 UNK         0.0813 
    118 H118       26.6002   31.9933    5.5454 H         1 UNK         0.0813 
    119 H119       28.0157   32.5269    6.4380 H         1 UNK         0.0813 
    120 H120       30.3292   30.7434    3.0077 H         1 UNK         0.3038 
    121 H121       32.1388   33.0832    3.1835 H         1 UNK         0.0769 
    122 H122       32.2731   30.5571    1.4439 H         1 UNK         0.0811 
    123 H123       33.2510   32.0009    1.2519 H         1 UNK         0.0811 
    124 H124       31.5247   32.0732    0.9421 H         1 UNK         0.0811 
    125 H125       34.5020   32.5660    3.2962 H         1 UNK         0.3204 
    126 H126       35.1703   30.9388    5.6153 H         1 UNK         0.0748 
    127 H127       37.4674   31.8266    5.1805 H         1 UNK         0.0771 
    128 H128       36.9319   32.5259    3.6596 H         1 UNK         0.0771 
    129 H129       36.2928   33.1304    5.1887 H         1 UNK         0.0771 
    130 H130       36.5564   29.1438    5.6366 H         1 UNK         0.2980 
    131 H131       37.4242   27.8556    3.1762 H         1 UNK         0.0545 
    132 H132       39.6794   27.6648    6.3115 H         1 UNK         0.3459 
    133 H133       38.6181   28.9797    5.8891 H         1 UNK         0.3459 
    134 H134       35.2466   26.9166    3.1745 H         1 UNK         0.0616 
    135 H135       36.2875   25.6599    3.7471 H         1 UNK         0.0616 
    136 H136       32.7710   27.6069    5.7302 H         1 UNK         0.0634 
    137 H137       33.3457   27.7143    4.0939 H         1 UNK         0.0634 
@<TRIPOS>BOND
     1    1    2 1    
     2    1   72 1    
     3    1   73 1    
     4    1   74 1    
     5    2    3 2    
     6    2    4 am   BACKBONE|DICT|INTERRES
     7    4    5 1    
     8    4   75 1    
     9    5    6 1    
    10    5   35 1    
    11    5   76 1    
    12    6    7 1    
    13    6   77 1    
    14    6   78 1    
    15    7    8 1    
    16    8    9 1    
    17    8   79 1    
    18    8   80 1    
    19    9   10 ar   
    20    9   14 ar   
    21   10   11 ar   
    22   10   81 1    
    23   11   12 ar   
    24   11   71 1    
    25   12   13 ar   
    26   12   82 1    
    27   13   14 ar   
    28   13   15 1    
    29   14   83 1    
    30   15   16 1    
    31   15   84 1    
    32   15   85 1    
    33   16   17 1    
    34   17   18 1    
    35   17   86 1    
    36   17   87 1    
    37   18   19 1    
    38   18   37 1    
    39   18   88 1    
    40   19   20 am   BACKBONE|DICT|INTERRES
    41   19   89 1    
    42   20   21 2    
    43   20   22 1    
    44   22   23 1    
    45   22   24 1    
    46   22   90 1    
    47   23   91 1    
    48   23   92 1    
    49   23   93 1    
    50   24   25 am   BACKBONE|DICT|INTERRES
    51   24   94 1    
    52   25   26 2    
    53   25   27 1    
    54   27   28 1    
    55   27   29 1    
    56   27   95 1    
    57   28   96 1    
    58   28   97 1    
    59   28   98 1    
    60   29   30 am   BACKBONE|DICT|INTERRES
    61   29   99 1    
    62   30   31 2    
    63   30   32 1    
    64   32   33 1    
    65   32   34 1    
    66   32  100 1    
    67   33  101 1    
    68   33  102 1    
    69   33  103 1    
    70   34   35 am   BACKBONE|DICT|INTERRES
    71   34  104 1    
    72   35   36 2    
    73   37   38 2    
    74   37   39 am   BACKBONE|DICT|INTERRES
    75   39   40 1    
    76   39  105 1    
    77   40   41 1    
    78   40   42 1    
    79   40  106 1    
    80   41  107 1    
    81   41  108 1    
    82   41  109 1    
    83   42   43 2    
    84   42   44 am   BACKBONE|DICT|INTERRES
    85   44   45 1    
    86   44  110 1    
    87   45   46 1    
    88   45   47 1    
    89   45  111 1    
    90   46  112 1    
    91   46  113 1    
    92   46  114 1    
    93   47   48 2    
    94   47   49 am   BACKBONE|DICT|INTERRES
    95   49   50 1    
    96   49  115 1    
    97   50   51 1    
    98   50   52 1    
    99   50  116 1    
   100   51  117 1    
   101   51  118 1    
   102   51  119 1    
   103   52   53 2    
   104   52   54 am   BACKBONE|DICT|INTERRES
   105   54   55 1    
   106   54  120 1    
   107   55   56 1    
   108   55   57 1    
   109   55  121 1    
   110   56  122 1    
   111   56  123 1    
   112   56  124 1    
   113   57   58 2    
   114   57   59 am   BACKBONE|DICT|INTERRES
   115   59   60 1    
   116   59  125 1    
   117   60   61 1    
   118   60   62 1    
   119   60  126 1    
   120   61  127 1    
   121   61  128 1    
   122   61  129 1    
   123   62   63 2    
   124   62   64 am   BACKBONE|DICT|INTERRES
   125   64   65 1    
   126   64  130 1    
   127   65   66 1    
   128   65   69 1    
   129   65  131 1    
   130   66   67 am   BACKBONE|DICT|INTERRES
   131   66   68 2    
   132   67  132 1    
   133   67  133 1    
   134   69   70 1    
   135   69  134 1    
   136   69  135 1    
   137   70   71 1    
   138   71  136 1    
   139   71  137 1    
@<TRIPOS>SUBSTRUCTURE
     1 UNK         1 GROUP             0       ****    0 ROOT    
