@<TRIPOS>MOLECULE
3R136
137   139    1
SMALL
USER_CHARGES


@<TRIPOS>ATOM
      1 CA         30.0610   22.6491    7.1591 C.3       0 UNK        -0.1979 
      2 C          29.8167   22.2853    5.7021 C.2       0 UNK         0.4864 
      3 O          30.5323   21.4480    5.1514 O.2       0 UNK        -0.5359 
      4 N          28.8157   22.9115    5.0740 N.am      1 UNK        -0.4318 
      5 CA         28.4239   22.6951    3.6838 C.3       1 UNK         0.0824 
      6 C6         29.2958   23.5264    2.7087 C.3       12 UNK        -0.0944 
      7 S7         29.1910   22.9464    0.9815 S.3       12 UNK        -0.2672 
      8 C8         30.9183   22.4998    0.6254 C.3       12 UNK         0.0333 
      9 C9         31.7659   23.7168    0.2770 C.ar      12 UNK        -0.0807 
     10 C10        32.5155   24.3640    1.2632 C.ar      12 UNK        -0.0894 
     11 C11        33.3365   25.4470    0.9363 C.ar      12 UNK        -0.0804 
     12 C12        33.4166   25.8739   -0.3924 C.ar      12 UNK        -0.0824 
     13 C13        32.6751   25.2328   -1.3942 C.ar      12 UNK        -0.0762 
     14 C14        31.8436   24.1623   -1.0466 C.ar      12 UNK        -0.0782 
     15 C15        32.8404   25.6062   -2.8663 C.3       12 UNK         0.0230 
     16 S16        33.0031   27.3962   -3.1740 S.3       12 UNK        -0.2608 
     17 C17        31.2772   27.9314   -3.4627 C.3       12 UNK        -0.0989 
     18 CA         30.6059   28.6752   -2.2791 C.3       5 UNK         0.0716 
     19 N          30.2805   27.7534   -1.1880 N.am      5 UNK        -0.4135 
     20 C          29.2940   27.9519   -0.3064 C.2       4 UNK         0.5031 
     21 O          28.6060   28.9743   -0.2609 O.2       4 UNK        -0.5229 
     22 CA         29.0698   26.8237    0.7156 C.3       4 UNK         0.0329 
     23 CB         29.9857   27.0135    1.9398 C.3       4 UNK        -0.2001 
     24 N          27.6772   26.7181    1.1656 N.am      4 UNK        -0.4303 
     25 C          26.6161   26.4889    0.3791 C.2       3 UNK         0.5044 
     26 O          26.6830   26.2893   -0.8357 O.2       3 UNK        -0.5152 
     27 CA         25.2563   26.4515    1.1016 C.3       3 UNK         0.0319 
     28 CB         24.0707   26.8020    0.1766 C.3       3 UNK        -0.2001 
     29 N          25.0514   25.1678    1.7845 N.am      3 UNK        -0.4354 
     30 C          24.9216   23.9525    1.2298 C.2       2 UNK         0.4964 
     31 O          24.8818   23.7344    0.0181 O.2       2 UNK        -0.5047 
     32 CA         24.8760   22.7701    2.2132 C.3       2 UNK         0.0288 
     33 CB         24.2015   21.5233    1.6099 C.3       2 UNK        -0.2113 
     34 N          26.2405   22.4278    2.6090 N.am      2 UNK        -0.4145 
     35 C          26.9364   23.0608    3.5604 C.2       1 UNK         0.5006 
     36 O          26.4583   23.9311    4.2952 O.2       1 UNK        -0.5103 
     37 C          31.4170   29.9117   -1.8279 C.2       5 UNK         0.5055 
     38 O          31.4996   30.8785   -2.5882 O.2       5 UNK        -0.5220 
     39 N          32.0219   29.8544   -0.6353 N.am      6 UNK        -0.4450 
     40 CA         32.9293   30.8622   -0.0942 C.3       6 UNK         0.0367 
     41 CB         34.3652   30.3106   -0.1682 C.3       6 UNK        -0.1929 
     42 C          32.5421   31.2018    1.3501 C.2       6 UNK         0.5070 
     43 O          31.6610   30.5569    1.9245 O.2       6 UNK        -0.5237 
     44 N          33.2130   32.2227    1.9053 N.am      7 UNK        -0.4739 
     45 CA         33.1311   32.6882    3.2986 C.3       7 UNK         0.0276 
     46 CB         33.7839   31.6498    4.2370 C.3       7 UNK        -0.1927 
     47 C          31.7043   33.0606    3.7472 C.2       7 UNK         0.5013 
     48 O          31.3292   32.7784    4.8845 O.2       7 UNK        -0.5193 
     49 N          30.9083   33.6295    2.8280 N.am      8 UNK        -0.4253 
     50 CA         29.4774   33.9375    2.9843 C.3       8 UNK         0.0242 
     51 CB         29.2817   35.1229    3.9540 C.3       8 UNK        -0.2000 
     52 C          28.6288   32.7040    3.3711 C.2       8 UNK         0.4948 
     53 O          27.6599   32.8355    4.1202 O.2       8 UNK        -0.5275 
     54 N          29.0367   31.5291    2.8673 N.am      9 UNK        -0.4246 
     55 CA         28.5040   30.1890    3.1246 C.3       9 UNK         0.0261 
     56 CB         26.9987   30.0858    2.7975 C.3       9 UNK        -0.1959 
     57 C          28.8525   29.6131    4.5118 C.2       9 UNK         0.5033 
     58 O          28.3498   28.5382    4.8443 O.2       9 UNK        -0.5390 
     59 N          29.7159   30.2821    5.2934 N.am      10 UNK        -0.4215 
     60 CA         30.1036   29.8401    6.6382 C.3       10 UNK         0.0240 
     61 CB         30.7185   31.0128    7.4185 C.3       10 UNK        -0.1982 
     62 C          31.0595   28.6342    6.6535 C.2       10 UNK         0.4970 
     63 O          31.1247   27.9518    7.6768 O.2       10 UNK        -0.4916 
     64 N          31.7841   28.3883    5.5515 N.am      11 UNK        -0.4279 
     65 CA         32.7180   27.2566    5.4181 C.3       11 UNK         0.1003 
     66 C          32.0433   25.8699    5.1847 C.2       11 UNK         0.5709 
     67 N          30.7238   25.7824    5.0594 N.am      11 UNK        -0.7358 
     68 O          32.7290   24.8523    5.1357 O.2       11 UNK        -0.4999 
     69 C69        33.8678   27.5666    4.4197 C.3       12 UNK        -0.0954 
     70 S70        33.3590   27.6114    2.6667 S.3       12 UNK        -0.2268 
     71 C71        34.1719   26.1182    2.0159 C.3       12 UNK         0.0203 
     72 H72        31.0622   23.0636    7.2764 H         1 UNK         0.0888 
     73 H73        29.3454   23.3875    7.5207 H         1 UNK         0.0888 
     74 H74        29.9816   21.7624    7.7873 H         1 UNK         0.0888 
     75 H75        28.1996   23.5434    5.5729 H         1 UNK         0.3017 
     76 H76        28.5334   21.6313    3.4596 H         1 UNK         0.0873 
     77 H77        29.0150   24.5784    2.7448 H         1 UNK         0.0745 
     78 H78        30.3379   23.4887    3.0248 H         1 UNK         0.0745 
     79 H79        31.3451   21.9608    1.4729 H         1 UNK         0.0705 
     80 H80        30.9287   21.7980   -0.2098 H         1 UNK         0.0705 
     81 H81        32.4720   24.0195    2.2875 H         1 UNK         0.1334 
     82 H82        34.0803   26.6891   -0.6465 H         1 UNK         0.1417 
     83 H83        31.2827   23.6447   -1.8135 H         1 UNK         0.1562 
     84 H84        32.0245   25.2035   -3.4682 H         1 UNK         0.0748 
     85 H85        33.7472   25.1209   -3.2294 H         1 UNK         0.0748 
     86 H86        30.6673   27.0773   -3.7606 H         1 UNK         0.0940 
     87 H87        31.2878   28.5858   -4.3365 H         1 UNK         0.0940 
     88 H88        29.6593   29.0671   -2.6588 H         1 UNK         0.0703 
     89 H89        30.8334   26.9088   -1.1376 H         1 UNK         0.3081 
     90 H90        29.3215   25.8767    0.2339 H         1 UNK         0.0719 
     91 H91        30.5928   27.9170    1.8753 H         1 UNK         0.0809 
     92 H92        29.4323   27.0698    2.8751 H         1 UNK         0.0809 
     93 H93        30.6781   26.1803    2.0342 H         1 UNK         0.0809 
     94 H94        27.5165   26.8722    2.1495 H         1 UNK         0.2990 
     95 H95        25.2834   27.2131    1.8824 H         1 UNK         0.0690 
     96 H96        23.1282   26.8041    0.7239 H         1 UNK         0.0788 
     97 H97        23.9733   26.1040   -0.6552 H         1 UNK         0.0788 
     98 H98        24.1994   27.7961   -0.2532 H         1 UNK         0.0788 
     99 H99        25.1309   25.1998    2.7938 H         1 UNK         0.2993 
    100 H100       24.2984   23.0711    3.0906 H         1 UNK         0.0949 
    101 H101       24.1336   20.7182    2.3418 H         1 UNK         0.0767 
    102 H102       23.1858   21.7507    1.2833 H         1 UNK         0.0767 
    103 H103       24.7456   21.1427    0.7443 H         1 UNK         0.0767 
    104 H104       26.7273   21.7747    2.0109 H         1 UNK         0.3013 
    105 H105       31.8301   29.0750   -0.0218 H         1 UNK         0.3121 
    106 H106       32.8679   31.7841   -0.6762 H         1 UNK         0.0774 
    107 H107       34.4836   29.4135    0.4406 H         1 UNK         0.0815 
    108 H108       35.0943   31.0415    0.1824 H         1 UNK         0.0815 
    109 H109       34.6359   30.0535   -1.1926 H         1 UNK         0.0815 
    110 H110       33.8937   32.7038    1.3328 H         1 UNK         0.2987 
    111 H111       33.7164   33.6070    3.3597 H         1 UNK         0.0949 
    112 H112       33.2125   30.7220    4.2655 H         1 UNK         0.0806 
    113 H113       34.7980   31.4077    3.9194 H         1 UNK         0.0806 
    114 H114       33.8465   32.0252    5.2592 H         1 UNK         0.0806 
    115 H115       31.3025   33.8059    1.9141 H         1 UNK         0.3010 
    116 H116       29.1203   34.2513    2.0022 H         1 UNK         0.0829 
    117 H117       29.5634   34.8609    4.9745 H         1 UNK         0.0813 
    118 H118       29.8765   35.9850    3.6526 H         1 UNK         0.0813 
    119 H119       28.2393   35.4428    3.9770 H         1 UNK         0.0813 
    120 H120       29.8917   31.5229    2.3192 H         1 UNK         0.3038 
    121 H121       29.0225   29.5537    2.4101 H         1 UNK         0.0769 
    122 H122       26.6592   29.0517    2.8479 H         1 UNK         0.0811 
    123 H123       26.3867   30.6561    3.4960 H         1 UNK         0.0811 
    124 H124       26.7885   30.4433    1.7894 H         1 UNK         0.0811 
    125 H125       30.1145   31.1597    4.9714 H         1 UNK         0.3204 
    126 H126       29.1943   29.5367    7.1619 H         1 UNK         0.0748 
    127 H127       30.8789   30.7431    8.4632 H         1 UNK         0.0771 
    128 H128       31.6861   31.3061    7.0099 H         1 UNK         0.0771 
    129 H129       30.0677   31.8875    7.4054 H         1 UNK         0.0771 
    130 H130       31.6653   28.9711    4.7361 H         1 UNK         0.2980 
    131 H131       33.2070   27.1508    6.3884 H         1 UNK         0.0545 
    132 H132       30.1468   26.6068    5.1235 H         1 UNK         0.3459 
    133 H133       30.3087   24.8788    4.9144 H         1 UNK         0.3459 
    134 H134       34.3124   28.5327    4.6616 H         1 UNK         0.0616 
    135 H135       34.6763   26.8460    4.5501 H         1 UNK         0.0616 
    136 H136       34.3543   25.4066    2.8222 H         1 UNK         0.0634 
    137 H137       35.1519   26.3897    1.6213 H         1 UNK         0.0634 
@<TRIPOS>BOND
     1    1    2 1    
     2    1   72 1    
     3    1   73 1    
     4    1   74 1    
     5    2    3 2    
     6    2    4 am   BACKBONE|DICT|INTERRES
     7    4    5 1    
     8    4   75 1    
     9    5    6 1    
    10    5   35 1    
    11    5   76 1    
    12    6    7 1    
    13    6   77 1    
    14    6   78 1    
    15    7    8 1    
    16    8    9 1    
    17    8   79 1    
    18    8   80 1    
    19    9   10 ar   
    20    9   14 ar   
    21   10   11 ar   
    22   10   81 1    
    23   11   12 ar   
    24   11   71 1    
    25   12   13 ar   
    26   12   82 1    
    27   13   14 ar   
    28   13   15 1    
    29   14   83 1    
    30   15   16 1    
    31   15   84 1    
    32   15   85 1    
    33   16   17 1    
    34   17   18 1    
    35   17   86 1    
    36   17   87 1    
    37   18   19 1    
    38   18   37 1    
    39   18   88 1    
    40   19   20 am   BACKBONE|DICT|INTERRES
    41   19   89 1    
    42   20   21 2    
    43   20   22 1    
    44   22   23 1    
    45   22   24 1    
    46   22   90 1    
    47   23   91 1    
    48   23   92 1    
    49   23   93 1    
    50   24   25 am   BACKBONE|DICT|INTERRES
    51   24   94 1    
    52   25   26 2    
    53   25   27 1    
    54   27   28 1    
    55   27   29 1    
    56   27   95 1    
    57   28   96 1    
    58   28   97 1    
    59   28   98 1    
    60   29   30 am   BACKBONE|DICT|INTERRES
    61   29   99 1    
    62   30   31 2    
    63   30   32 1    
    64   32   33 1    
    65   32   34 1    
    66   32  100 1    
    67   33  101 1    
    68   33  102 1    
    69   33  103 1    
    70   34   35 am   BACKBONE|DICT|INTERRES
    71   34  104 1    
    72   35   36 2    
    73   37   38 2    
    74   37   39 am   BACKBONE|DICT|INTERRES
    75   39   40 1    
    76   39  105 1    
    77   40   41 1    
    78   40   42 1    
    79   40  106 1    
    80   41  107 1    
    81   41  108 1    
    82   41  109 1    
    83   42   43 2    
    84   42   44 am   BACKBONE|DICT|INTERRES
    85   44   45 1    
    86   44  110 1    
    87   45   46 1    
    88   45   47 1    
    89   45  111 1    
    90   46  112 1    
    91   46  113 1    
    92   46  114 1    
    93   47   48 2    
    94   47   49 am   BACKBONE|DICT|INTERRES
    95   49   50 1    
    96   49  115 1    
    97   50   51 1    
    98   50   52 1    
    99   50  116 1    
   100   51  117 1    
   101   51  118 1    
   102   51  119 1    
   103   52   53 2    
   104   52   54 am   BACKBONE|DICT|INTERRES
   105   54   55 1    
   106   54  120 1    
   107   55   56 1    
   108   55   57 1    
   109   55  121 1    
   110   56  122 1    
   111   56  123 1    
   112   56  124 1    
   113   57   58 2    
   114   57   59 am   BACKBONE|DICT|INTERRES
   115   59   60 1    
   116   59  125 1    
   117   60   61 1    
   118   60   62 1    
   119   60  126 1    
   120   61  127 1    
   121   61  128 1    
   122   61  129 1    
   123   62   63 2    
   124   62   64 am   BACKBONE|DICT|INTERRES
   125   64   65 1    
   126   64  130 1    
   127   65   66 1    
   128   65   69 1    
   129   65  131 1    
   130   66   67 am   BACKBONE|DICT|INTERRES
   131   66   68 2    
   132   67  132 1    
   133   67  133 1    
   134   69   70 1    
   135   69  134 1    
   136   69  135 1    
   137   70   71 1    
   138   71  136 1    
   139   71  137 1    
@<TRIPOS>SUBSTRUCTURE
     1 UNK         1 GROUP             0       ****    0 ROOT    
