@<TRIPOS>MOLECULE
3R136
137   139    1
SMALL
USER_CHARGES


@<TRIPOS>ATOM
      1 CA         30.0714   19.1611   -2.1652 C.3       0 UNK        -0.1979 
      2 C          29.4468   20.3533   -1.4565 C.2       0 UNK         0.4864 
      3 O          28.9366   20.2025   -0.3457 O.2       0 UNK        -0.5359 
      4 N          29.4686   21.5307   -2.0978 N.am      1 UNK        -0.4318 
      5 CA         28.9934   22.8457   -1.6266 C.3       1 UNK         0.0824 
      6 C6         29.6730   23.3434   -0.3240 C.3       12 UNK        -0.0944 
      7 S7         31.4964   23.3454   -0.3991 S.3       12 UNK        -0.2672 
      8 C8         31.9182   22.1578    0.9167 C.3       12 UNK         0.0333 
      9 C9         31.7287   22.7548    2.3050 C.ar      12 UNK        -0.0807 
     10 C10        32.7513   23.5094    2.8880 C.ar      12 UNK        -0.0894 
     11 C11        32.5975   24.0427    4.1712 C.ar      12 UNK        -0.0804 
     12 C12        31.4009   23.8336    4.8652 C.ar      12 UNK        -0.0824 
     13 C13        30.3684   23.0849    4.2910 C.ar      12 UNK        -0.0762 
     14 C14        30.5448   22.5363    3.0174 C.ar      12 UNK        -0.0782 
     15 C15        29.0678   22.8478    5.0475 C.3       12 UNK         0.0230 
     16 S16        27.6927   23.8416    4.3799 S.3       12 UNK        -0.2608 
     17 C17        28.1617   25.5266    4.8983 C.3       12 UNK        -0.0989 
     18 CA         28.8270   26.3264    3.7518 C.3       5 UNK         0.0716 
     19 N          27.9256   26.5093    2.6054 N.am      5 UNK        -0.4135 
     20 C          28.3151   26.7650    1.3507 C.2       4 UNK         0.5031 
     21 O          29.4972   26.8312    1.0139 O.2       4 UNK        -0.5229 
     22 CA         27.2044   27.0321    0.3128 C.3       4 UNK         0.0329 
     23 CB         27.7563   27.1627   -1.1196 C.3       4 UNK        -0.2001 
     24 N          26.1228   26.0382    0.3279 N.am      4 UNK        -0.4303 
     25 C          25.1282   25.9977    1.2289 C.2       3 UNK         0.5044 
     26 O          25.0870   26.7364    2.2142 O.2       3 UNK        -0.5152 
     27 CA         23.9780   24.9968    1.0095 C.3       3 UNK         0.0319 
     28 CB         22.7371   25.7242    0.4665 C.3       3 UNK        -0.2001 
     29 N          24.3170   23.8993    0.1034 N.am      3 UNK        -0.4354 
     30 C          25.0481   22.8320    0.4464 C.2       2 UNK         0.4964 
     31 O          25.4836   22.6364    1.5809 O.2       2 UNK        -0.5047 
     32 CA         25.3769   21.8154   -0.6619 C.3       2 UNK         0.0288 
     33 CB         24.4805   21.9216   -1.9181 C.3       2 UNK        -0.2113 
     34 N          26.7958   21.8952   -1.0170 N.am      2 UNK        -0.4145 
     35 C          27.4594   22.9615   -1.4855 C.2       1 UNK         0.5006 
     36 O          26.9117   24.0250   -1.7823 O.2       1 UNK        -0.5103 
     37 C          29.4124   27.6610    4.2690 C.2       5 UNK         0.5055 
     38 O          30.2661   27.6401    5.1542 O.2       5 UNK        -0.5220 
     39 N          28.9634   28.7935    3.7183 N.am      6 UNK        -0.4450 
     40 CA         29.5708   30.1069    3.8640 C.3       6 UNK         0.0367 
     41 CB         28.9209   30.8784    5.0245 C.3       6 UNK        -0.1929 
     42 C          29.3710   30.8225    2.5263 C.2       6 UNK         0.5070 
     43 O          28.2441   30.8543    2.0266 O.2       6 UNK        -0.5237 
     44 N          30.4559   31.3669    1.9726 N.am      7 UNK        -0.4739 
     45 CA         30.4586   32.1833    0.7576 C.3       7 UNK         0.0276 
     46 CB         31.5669   31.6875   -0.1851 C.3       7 UNK        -0.1927 
     47 C          30.6744   33.6618    1.1089 C.2       7 UNK         0.5013 
     48 O          30.0434   34.5282    0.5028 O.2       7 UNK        -0.5193 
     49 N          31.5402   33.9194    2.0965 N.am      8 UNK        -0.4253 
     50 CA         31.8469   35.2394    2.6406 C.3       8 UNK         0.0242 
     51 CB         32.8738   35.9617    1.7446 C.3       8 UNK        -0.2000 
     52 C          32.3405   35.0255    4.0740 C.2       8 UNK         0.4948 
     53 O          33.5285   35.2028    4.3511 O.2       8 UNK        -0.5275 
     54 N          31.4360   34.5296    4.9326 N.am      9 UNK        -0.4246 
     55 CA         31.6526   33.9985    6.2900 C.3       9 UNK         0.0261 
     56 CB         32.2583   35.0495    7.2418 C.3       9 UNK        -0.1959 
     57 C          32.4611   32.6871    6.2976 C.2       9 UNK         0.5033 
     58 O          32.0095   31.7007    6.8797 O.2       9 UNK        -0.5390 
     59 N          33.6085   32.6865    5.6105 N.am      10 UNK        -0.4215 
     60 CA         34.3624   31.4982    5.2186 C.3       10 UNK         0.0240 
     61 CB         35.7813   31.9279    4.8118 C.3       10 UNK        -0.1982 
     62 C          33.6646   30.7760    4.0533 C.2       10 UNK         0.4970 
     63 O          32.8754   31.3929    3.3298 O.2       10 UNK        -0.4916 
     64 N          33.9917   29.4908    3.8825 N.am      11 UNK        -0.4279 
     65 CA         33.4169   28.5812    2.8737 C.3       11 UNK         0.1003 
     66 C          33.7418   28.9335    1.3911 C.2       11 UNK         0.5709 
     67 N          34.6759   29.8336    1.1074 N.am      11 UNK        -0.7358 
     68 O          33.1331   28.3795    0.4805 O.2       11 UNK        -0.4999 
     69 C69        33.7756   27.0978    3.1684 C.3       12 UNK        -0.0954 
     70 S70        33.4254   26.5988    4.8876 S.3       12 UNK        -0.2268 
     71 C71        33.7377   24.8094    4.8265 C.3       12 UNK         0.0203 
     72 H72        29.3246   18.3828   -2.3193 H         1 UNK         0.0888 
     73 H73        30.4843   19.4332   -3.1364 H         1 UNK         0.0888 
     74 H74        30.8764   18.7464   -1.5592 H         1 UNK         0.0888 
     75 H75        29.8812   21.5547   -3.0202 H         1 UNK         0.3017 
     76 H76        29.2695   23.5442   -2.4184 H         1 UNK         0.0873 
     77 H77        29.3628   24.3657   -0.1059 H         1 UNK         0.0745 
     78 H78        29.3355   22.7480    0.5229 H         1 UNK         0.0745 
     79 H79        31.3219   21.2514    0.8030 H         1 UNK         0.0705 
     80 H80        32.9576   21.8517    0.7901 H         1 UNK         0.0705 
     81 H81        33.6723   23.6714    2.3446 H         1 UNK         0.1334 
     82 H82        31.2788   24.2531    5.8547 H         1 UNK         0.1417 
     83 H83        29.7527   21.9420    2.5830 H         1 UNK         0.1562 
     84 H84        29.1896   23.0580    6.1113 H         1 UNK         0.0748 
     85 H85        28.8010   21.7922    4.9777 H         1 UNK         0.0748 
     86 H86        28.8265   25.4549    5.7614 H         1 UNK         0.0940 
     87 H87        27.2662   26.0406    5.2525 H         1 UNK         0.0940 
     88 H88        29.6858   25.7487    3.4029 H         1 UNK         0.0703 
     89 H89        26.9277   26.4835    2.7936 H         1 UNK         0.3081 
     90 H90        26.7713   28.0006    0.5729 H         1 UNK         0.0719 
     91 H91        28.2809   26.2610   -1.4354 H         1 UNK         0.0809 
     92 H92        26.9608   27.3585   -1.8385 H         1 UNK         0.0809 
     93 H93        28.4649   27.9892   -1.1898 H         1 UNK         0.0809 
     94 H94        26.1321   25.3569   -0.4246 H         1 UNK         0.2990 
     95 H95        23.7230   24.5769    1.9851 H         1 UNK         0.0690 
     96 H96        21.8882   25.0463    0.3739 H         1 UNK         0.0788 
     97 H97        22.9236   26.1663   -0.5131 H         1 UNK         0.0788 
     98 H98        22.4330   26.5308    1.1353 H         1 UNK         0.0788 
     99 H99        24.0229   23.9894   -0.8588 H         1 UNK         0.2993 
    100 H100       25.2193   20.8275   -0.2261 H         1 UNK         0.0949 
    101 H101       24.6112   22.8630   -2.4523 H         1 UNK         0.0767 
    102 H102       24.7025   21.1173   -2.6197 H         1 UNK         0.0767 
    103 H103       23.4254   21.8320   -1.6558 H         1 UNK         0.0767 
    104 H104       27.3719   21.1049   -0.7327 H         1 UNK         0.3013 
    105 H105       28.2562   28.7416    2.9970 H         1 UNK         0.3121 
    106 H106       30.6386   30.0001    4.0640 H         1 UNK         0.0774 
    107 H107       27.8477   31.0045    4.8768 H         1 UNK         0.0815 
    108 H108       29.3595   31.8718    5.1231 H         1 UNK         0.0815 
    109 H109       29.0724   30.3631    5.9732 H         1 UNK         0.0815 
    110 H110       31.3466   31.2858    2.4616 H         1 UNK         0.2987 
    111 H111       29.5025   32.0989    0.2358 H         1 UNK         0.0949 
    112 H112       32.5541   31.7665    0.2721 H         1 UNK         0.0806 
    113 H113       31.4115   30.6447   -0.4628 H         1 UNK         0.0806 
    114 H114       31.5854   32.2703   -1.1069 H         1 UNK         0.0806 
    115 H115       32.0200   33.1419    2.5387 H         1 UNK         0.3010 
    116 H116       30.9361   35.8405    2.6881 H         1 UNK         0.0829 
    117 H117       33.1450   36.9307    2.1654 H         1 UNK         0.0813 
    118 H118       33.7916   35.3825    1.6357 H         1 UNK         0.0813 
    119 H119       32.4732   36.1429    0.7472 H         1 UNK         0.0813 
    120 H120       30.4978   34.4015    4.5784 H         1 UNK         0.3038 
    121 H121       30.6594   33.7544    6.6708 H         1 UNK         0.0769 
    122 H122       33.2737   35.3286    6.9599 H         1 UNK         0.0811 
    123 H123       32.3029   34.6657    8.2617 H         1 UNK         0.0811 
    124 H124       31.6555   35.9573    7.2635 H         1 UNK         0.0811 
    125 H125       33.8479   33.5559    5.1376 H         1 UNK         0.3204 
    126 H126       34.4215   30.8195    6.0723 H         1 UNK         0.0748 
    127 H127       36.3941   31.0667    4.5426 H         1 UNK         0.0771 
    128 H128       35.7680   32.6021    3.9539 H         1 UNK         0.0771 
    129 H129       36.2885   32.4399    5.6300 H         1 UNK         0.0771 
    130 H130       34.6531   29.0665    4.5157 H         1 UNK         0.2980 
    131 H131       32.3329   28.6705    2.9617 H         1 UNK         0.0545 
    132 H132       35.1812   30.2973    1.8440 H         1 UNK         0.3459 
    133 H133       34.8759   30.0476    0.1436 H         1 UNK         0.3459 
    134 H134       34.8333   26.9135    2.9713 H         1 UNK         0.0616 
    135 H135       33.2154   26.4380    2.5030 H         1 UNK         0.0616 
    136 H136       34.6821   24.6231    4.3127 H         1 UNK         0.0634 
    137 H137       33.8705   24.4457    5.8464 H         1 UNK         0.0634 
@<TRIPOS>BOND
     1    1    2 1    
     2    1   72 1    
     3    1   73 1    
     4    1   74 1    
     5    2    3 2    
     6    2    4 am   BACKBONE|DICT|INTERRES
     7    4    5 1    
     8    4   75 1    
     9    5    6 1    
    10    5   35 1    
    11    5   76 1    
    12    6    7 1    
    13    6   77 1    
    14    6   78 1    
    15    7    8 1    
    16    8    9 1    
    17    8   79 1    
    18    8   80 1    
    19    9   10 ar   
    20    9   14 ar   
    21   10   11 ar   
    22   10   81 1    
    23   11   12 ar   
    24   11   71 1    
    25   12   13 ar   
    26   12   82 1    
    27   13   14 ar   
    28   13   15 1    
    29   14   83 1    
    30   15   16 1    
    31   15   84 1    
    32   15   85 1    
    33   16   17 1    
    34   17   18 1    
    35   17   86 1    
    36   17   87 1    
    37   18   19 1    
    38   18   37 1    
    39   18   88 1    
    40   19   20 am   BACKBONE|DICT|INTERRES
    41   19   89 1    
    42   20   21 2    
    43   20   22 1    
    44   22   23 1    
    45   22   24 1    
    46   22   90 1    
    47   23   91 1    
    48   23   92 1    
    49   23   93 1    
    50   24   25 am   BACKBONE|DICT|INTERRES
    51   24   94 1    
    52   25   26 2    
    53   25   27 1    
    54   27   28 1    
    55   27   29 1    
    56   27   95 1    
    57   28   96 1    
    58   28   97 1    
    59   28   98 1    
    60   29   30 am   BACKBONE|DICT|INTERRES
    61   29   99 1    
    62   30   31 2    
    63   30   32 1    
    64   32   33 1    
    65   32   34 1    
    66   32  100 1    
    67   33  101 1    
    68   33  102 1    
    69   33  103 1    
    70   34   35 am   BACKBONE|DICT|INTERRES
    71   34  104 1    
    72   35   36 2    
    73   37   38 2    
    74   37   39 am   BACKBONE|DICT|INTERRES
    75   39   40 1    
    76   39  105 1    
    77   40   41 1    
    78   40   42 1    
    79   40  106 1    
    80   41  107 1    
    81   41  108 1    
    82   41  109 1    
    83   42   43 2    
    84   42   44 am   BACKBONE|DICT|INTERRES
    85   44   45 1    
    86   44  110 1    
    87   45   46 1    
    88   45   47 1    
    89   45  111 1    
    90   46  112 1    
    91   46  113 1    
    92   46  114 1    
    93   47   48 2    
    94   47   49 am   BACKBONE|DICT|INTERRES
    95   49   50 1    
    96   49  115 1    
    97   50   51 1    
    98   50   52 1    
    99   50  116 1    
   100   51  117 1    
   101   51  118 1    
   102   51  119 1    
   103   52   53 2    
   104   52   54 am   BACKBONE|DICT|INTERRES
   105   54   55 1    
   106   54  120 1    
   107   55   56 1    
   108   55   57 1    
   109   55  121 1    
   110   56  122 1    
   111   56  123 1    
   112   56  124 1    
   113   57   58 2    
   114   57   59 am   BACKBONE|DICT|INTERRES
   115   59   60 1    
   116   59  125 1    
   117   60   61 1    
   118   60   62 1    
   119   60  126 1    
   120   61  127 1    
   121   61  128 1    
   122   61  129 1    
   123   62   63 2    
   124   62   64 am   BACKBONE|DICT|INTERRES
   125   64   65 1    
   126   64  130 1    
   127   65   66 1    
   128   65   69 1    
   129   65  131 1    
   130   66   67 am   BACKBONE|DICT|INTERRES
   131   66   68 2    
   132   67  132 1    
   133   67  133 1    
   134   69   70 1    
   135   69  134 1    
   136   69  135 1    
   137   70   71 1    
   138   71  136 1    
   139   71  137 1    
@<TRIPOS>SUBSTRUCTURE
     1 UNK         1 GROUP             0       ****    0 ROOT    
