@<TRIPOS>MOLECULE
3R136
137   139    1
SMALL
USER_CHARGES


@<TRIPOS>ATOM
      1 CA         25.2429   17.4108    0.9778 C.3       0 UNK        -0.1979 
      2 C          26.5698   17.9894    0.5085 C.2       0 UNK         0.4864 
      3 O          27.2646   17.3571   -0.2890 O.2       0 UNK        -0.5359 
      4 N          26.9300   19.1813    1.0021 N.am      1 UNK        -0.4318 
      5 CA         28.1349   19.9173    0.6085 C.3       1 UNK         0.0824 
      6 C6         28.4746   21.0216    1.6408 C.3       12 UNK        -0.0944 
      7 S7         30.2139   21.5727    1.5425 S.3       12 UNK        -0.2672 
      8 C8         30.6865   21.6819    3.2988 C.3       12 UNK         0.0333 
      9 C9         30.1983   22.9669    3.9593 C.ar      12 UNK        -0.0807 
     10 C10        31.0894   24.0185    4.2045 C.ar      12 UNK        -0.0894 
     11 C11        30.6618   25.1699    4.8749 C.ar      12 UNK        -0.0804 
     12 C12        29.3298   25.2727    5.2856 C.ar      12 UNK        -0.0824 
     13 C13        28.4228   24.2470    5.0150 C.ar      12 UNK        -0.0762 
     14 C14        28.8657   23.0917    4.3654 C.ar      12 UNK        -0.0782 
     15 C15        26.9658   24.3799    5.4270 C.3       12 UNK         0.0230 
     16 S16        25.9847   25.1871    4.1228 S.3       12 UNK        -0.2608 
     17 C17        26.2112   26.9638    4.4928 C.3       12 UNK        -0.0989 
     18 CA         27.1747   27.7103    3.5264 C.3       5 UNK         0.0716 
     19 N          26.8364   27.4518    2.1188 N.am      5 UNK        -0.4135 
     20 C          27.6410   27.6291    1.0649 C.2       4 UNK         0.5031 
     21 O          28.7457   28.1762    1.1229 O.2       4 UNK        -0.5229 
     22 CA         27.1307   27.1429   -0.2976 C.3       4 UNK         0.0329 
     23 CB         26.6980   28.3351   -1.1659 C.3       4 UNK        -0.2001 
     24 N          28.2031   26.4123   -0.9734 N.am      4 UNK        -0.4303 
     25 C          28.5440   25.1516   -0.6812 C.2       3 UNK         0.5044 
     26 O          27.8914   24.4177    0.0645 O.2       3 UNK        -0.5152 
     27 CA         29.8639   24.6480   -1.2835 C.3       3 UNK         0.0319 
     28 CB         31.0142   24.8468   -0.2820 C.3       3 UNK        -0.2001 
     29 N          29.7691   23.2286   -1.6128 N.am      3 UNK        -0.4354 
     30 C          29.2422   22.7394   -2.7436 C.2       2 UNK         0.4964 
     31 O          28.8414   23.4420   -3.6724 O.2       2 UNK        -0.5047 
     32 CA         29.1547   21.2068   -2.8693 C.3       2 UNK         0.0288 
     33 CB         30.3649   20.6601   -3.6445 C.3       2 UNK        -0.2113 
     34 N          29.0749   20.5394   -1.5675 N.am      2 UNK        -0.4145 
     35 C          27.9722   20.5076   -0.8073 C.2       1 UNK         0.5006 
     36 O          26.8767   20.9481   -1.1677 O.2       1 UNK        -0.5103 
     37 C          27.2589   29.2226    3.8640 C.2       5 UNK         0.5055 
     38 O          26.6179   29.6764    4.8142 O.2       5 UNK        -0.5220 
     39 N          28.0141   29.9879    3.0663 N.am      6 UNK        -0.4450 
     40 CA         28.1484   31.4426    3.1636 C.3       6 UNK         0.0367 
     41 CB         28.8170   31.9823    1.8888 C.3       6 UNK        -0.1929 
     42 C          28.9175   31.9036    4.4111 C.2       6 UNK         0.5070 
     43 O          28.5363   32.9096    5.0107 O.2       6 UNK        -0.5237 
     44 N          29.9802   31.1662    4.7690 N.am      7 UNK        -0.4739 
     45 CA         30.9174   31.3676    5.8861 C.3       7 UNK         0.0276 
     46 CB         30.2057   31.2297    7.2451 C.3       7 UNK        -0.1927 
     47 C          31.7445   32.6662    5.8163 C.2       7 UNK         0.5013 
     48 O          32.9717   32.6042    5.9121 O.2       7 UNK        -0.5193 
     49 N          31.0761   33.8126    5.6426 N.am      8 UNK        -0.4253 
     50 CA         31.6773   35.1308    5.4440 C.3       8 UNK         0.0242 
     51 CB         30.5749   36.2026    5.4661 C.3       8 UNK        -0.2000 
     52 C          32.4602   35.1632    4.1225 C.2       8 UNK         0.4948 
     53 O          31.8625   34.9585    3.0645 O.2       8 UNK        -0.5275 
     54 N          33.7801   35.3774    4.2261 N.am      9 UNK        -0.4246 
     55 CA         34.7785   35.2649    3.1525 C.3       9 UNK         0.0261 
     56 CB         34.5487   36.3281    2.0557 C.3       9 UNK        -0.1959 
     57 C          34.9058   33.8302    2.5911 C.2       9 UNK         0.5033 
     58 O          35.2360   33.6674    1.4145 O.2       9 UNK        -0.5390 
     59 N          34.6713   32.8329    3.4607 N.am      10 UNK        -0.4215 
     60 CA         34.6463   31.3833    3.2307 C.3       10 UNK         0.0240 
     61 CB         35.9406   30.8768    2.5590 C.3       10 UNK        -0.1982 
     62 C          33.3888   30.9113    2.4794 C.2       10 UNK         0.4970 
     63 O          32.7173   31.6917    1.8026 O.2       10 UNK        -0.4916 
     64 N          33.0870   29.6190    2.6385 N.am      11 UNK        -0.4279 
     65 CA         31.9732   28.9268    1.9759 C.3       11 UNK         0.1003 
     66 C          32.2060   28.7391    0.4518 C.2       11 UNK         0.5709 
     67 N          31.1362   28.5991   -0.3170 N.am      11 UNK        -0.7358 
     68 O          33.3355   28.6930   -0.0333 O.2       11 UNK        -0.4999 
     69 C69        31.6520   27.5841    2.6806 C.3       12 UNK        -0.0954 
     70 S70        31.1475   27.8604    4.4100 S.3       12 UNK        -0.2268 
     71 C71        31.6379   26.2934    5.1919 C.3       12 UNK         0.0203 
     72 H72        24.5777   17.2613    0.1278 H         1 UNK         0.0888 
     73 H73        25.4032   16.4466    1.4595 H         1 UNK         0.0888 
     74 H74        24.7411   18.0659    1.6898 H         1 UNK         0.0888 
     75 H75        26.3010   19.6694    1.6233 H         1 UNK         0.3017 
     76 H76        28.9568   19.1975    0.5919 H         1 UNK         0.0873 
     77 H77        28.3014   20.6276    2.6424 H         1 UNK         0.0745 
     78 H78        27.8167   21.8879    1.5381 H         1 UNK         0.0745 
     79 H79        31.7742   21.6230    3.3616 H         1 UNK         0.0705 
     80 H80        30.3117   20.8140    3.8432 H         1 UNK         0.0705 
     81 H81        32.1217   23.9303    3.8945 H         1 UNK         0.1334 
     82 H82        28.9978   26.1609    5.8055 H         1 UNK         0.1417 
     83 H83        28.1667   22.2895    4.1801 H         1 UNK         0.1562 
     84 H84        26.8773   24.9252    6.3677 H         1 UNK         0.0748 
     85 H85        26.5445   23.3912    5.6151 H         1 UNK         0.0748 
     86 H86        26.5497   27.0768    5.5243 H         1 UNK         0.0940 
     87 H87        25.2201   27.4210    4.4591 H         1 UNK         0.0940 
     88 H88        28.1764   27.3088    3.6883 H         1 UNK         0.0703 
     89 H89        25.9417   27.0086    1.9700 H         1 UNK         0.3081 
     90 H90        26.2735   26.4808   -0.1560 H         1 UNK         0.0719 
     91 H91        27.5173   29.0366   -1.3305 H         1 UNK         0.0809 
     92 H92        26.3379   28.0054   -2.1406 H         1 UNK         0.0809 
     93 H93        25.8866   28.8886   -0.6914 H         1 UNK         0.0809 
     94 H94        28.8118   26.9566   -1.5666 H         1 UNK         0.2990 
     95 H95        30.0892   25.2135   -2.1904 H         1 UNK         0.0690 
     96 H96        31.9556   24.4593   -0.6714 H         1 UNK         0.0788 
     97 H97        30.8140   24.3541    0.6703 H         1 UNK         0.0788 
     98 H98        31.1643   25.9031   -0.0672 H         1 UNK         0.0788 
     99 H99        30.0098   22.5850   -0.8723 H         1 UNK         0.2993 
    100 H100       28.2509   20.9745   -3.4374 H         1 UNK         0.0949 
    101 H101       30.2852   19.5834   -3.7964 H         1 UNK         0.0767 
    102 H102       30.4358   21.1205   -4.6311 H         1 UNK         0.0767 
    103 H103       31.3029   20.8586   -3.1241 H         1 UNK         0.0767 
    104 H104       29.9334   20.1537   -1.1999 H         1 UNK         0.3013 
    105 H105       28.4779   29.5195    2.2898 H         1 UNK         0.3121 
    106 H106       27.1431   31.8657    3.2229 H         1 UNK         0.0774 
    107 H107       28.8929   33.0702    1.9207 H         1 UNK         0.0815 
    108 H108       29.8278   31.5937    1.7622 H         1 UNK         0.0815 
    109 H109       28.2439   31.7233    0.9984 H         1 UNK         0.0815 
    110 H110       30.1840   30.3609    4.1932 H         1 UNK         0.2987 
    111 H111       31.6354   30.5488    5.8156 H         1 UNK         0.0949 
    112 H112       29.4575   32.0079    7.3979 H         1 UNK         0.0806 
    113 H113       29.7063   30.2646    7.3316 H         1 UNK         0.0806 
    114 H114       30.9194   31.3002    8.0670 H         1 UNK         0.0806 
    115 H115       30.0699   33.7353    5.5061 H         1 UNK         0.3010 
    116 H116       32.3581   35.3210    6.2765 H         1 UNK         0.0829 
    117 H117       30.0463   36.2083    6.4195 H         1 UNK         0.0813 
    118 H118       30.9960   37.1984    5.3217 H         1 UNK         0.0813 
    119 H119       29.8393   36.0408    4.6767 H         1 UNK         0.0813 
    120 H120       34.1601   35.5386    5.1496 H         1 UNK         0.3038 
    121 H121       35.7413   35.4845    3.6165 H         1 UNK         0.0769 
    122 H122       35.3816   36.3487    1.3519 H         1 UNK         0.0811 
    123 H123       34.4620   37.3274    2.4820 H         1 UNK         0.0811 
    124 H124       33.6450   36.1283    1.4794 H         1 UNK         0.0811 
    125 H125       34.3387   33.0976    4.3820 H         1 UNK         0.3204 
    126 H126       34.6005   30.9438    4.2286 H         1 UNK         0.0748 
    127 H127       35.9881   29.7875    2.5721 H         1 UNK         0.0771 
    128 H128       36.0064   31.1846    1.5150 H         1 UNK         0.0771 
    129 H129       36.8274   31.2445    3.0753 H         1 UNK         0.0771 
    130 H130       33.6939   29.0365    3.1949 H         1 UNK         0.2980 
    131 H131       31.0954   29.5673    2.0769 H         1 UNK         0.0545 
    132 H132       30.2114   28.5632    0.1059 H         1 UNK         0.3459 
    133 H133       31.2537   28.4892   -1.3106 H         1 UNK         0.3459 
    134 H134       30.8414   27.0536    2.1794 H         1 UNK         0.0616 
    135 H135       32.5176   26.9202    2.6492 H         1 UNK         0.0616 
    136 H136       31.6652   26.4387    6.2726 H         1 UNK         0.0634 
    137 H137       32.6545   26.0350    4.8920 H         1 UNK         0.0634 
@<TRIPOS>BOND
     1    1    2 1    
     2    1   72 1    
     3    1   73 1    
     4    1   74 1    
     5    2    3 2    
     6    2    4 am   BACKBONE|DICT|INTERRES
     7    4    5 1    
     8    4   75 1    
     9    5    6 1    
    10    5   35 1    
    11    5   76 1    
    12    6    7 1    
    13    6   77 1    
    14    6   78 1    
    15    7    8 1    
    16    8    9 1    
    17    8   79 1    
    18    8   80 1    
    19    9   10 ar   
    20    9   14 ar   
    21   10   11 ar   
    22   10   81 1    
    23   11   12 ar   
    24   11   71 1    
    25   12   13 ar   
    26   12   82 1    
    27   13   14 ar   
    28   13   15 1    
    29   14   83 1    
    30   15   16 1    
    31   15   84 1    
    32   15   85 1    
    33   16   17 1    
    34   17   18 1    
    35   17   86 1    
    36   17   87 1    
    37   18   19 1    
    38   18   37 1    
    39   18   88 1    
    40   19   20 am   BACKBONE|DICT|INTERRES
    41   19   89 1    
    42   20   21 2    
    43   20   22 1    
    44   22   23 1    
    45   22   24 1    
    46   22   90 1    
    47   23   91 1    
    48   23   92 1    
    49   23   93 1    
    50   24   25 am   BACKBONE|DICT|INTERRES
    51   24   94 1    
    52   25   26 2    
    53   25   27 1    
    54   27   28 1    
    55   27   29 1    
    56   27   95 1    
    57   28   96 1    
    58   28   97 1    
    59   28   98 1    
    60   29   30 am   BACKBONE|DICT|INTERRES
    61   29   99 1    
    62   30   31 2    
    63   30   32 1    
    64   32   33 1    
    65   32   34 1    
    66   32  100 1    
    67   33  101 1    
    68   33  102 1    
    69   33  103 1    
    70   34   35 am   BACKBONE|DICT|INTERRES
    71   34  104 1    
    72   35   36 2    
    73   37   38 2    
    74   37   39 am   BACKBONE|DICT|INTERRES
    75   39   40 1    
    76   39  105 1    
    77   40   41 1    
    78   40   42 1    
    79   40  106 1    
    80   41  107 1    
    81   41  108 1    
    82   41  109 1    
    83   42   43 2    
    84   42   44 am   BACKBONE|DICT|INTERRES
    85   44   45 1    
    86   44  110 1    
    87   45   46 1    
    88   45   47 1    
    89   45  111 1    
    90   46  112 1    
    91   46  113 1    
    92   46  114 1    
    93   47   48 2    
    94   47   49 am   BACKBONE|DICT|INTERRES
    95   49   50 1    
    96   49  115 1    
    97   50   51 1    
    98   50   52 1    
    99   50  116 1    
   100   51  117 1    
   101   51  118 1    
   102   51  119 1    
   103   52   53 2    
   104   52   54 am   BACKBONE|DICT|INTERRES
   105   54   55 1    
   106   54  120 1    
   107   55   56 1    
   108   55   57 1    
   109   55  121 1    
   110   56  122 1    
   111   56  123 1    
   112   56  124 1    
   113   57   58 2    
   114   57   59 am   BACKBONE|DICT|INTERRES
   115   59   60 1    
   116   59  125 1    
   117   60   61 1    
   118   60   62 1    
   119   60  126 1    
   120   61  127 1    
   121   61  128 1    
   122   61  129 1    
   123   62   63 2    
   124   62   64 am   BACKBONE|DICT|INTERRES
   125   64   65 1    
   126   64  130 1    
   127   65   66 1    
   128   65   69 1    
   129   65  131 1    
   130   66   67 am   BACKBONE|DICT|INTERRES
   131   66   68 2    
   132   67  132 1    
   133   67  133 1    
   134   69   70 1    
   135   69  134 1    
   136   69  135 1    
   137   70   71 1    
   138   71  136 1    
   139   71  137 1    
@<TRIPOS>SUBSTRUCTURE
     1 UNK         1 GROUP             0       ****    0 ROOT    
