@<TRIPOS>MOLECULE
3R136
137   139    1
SMALL
USER_CHARGES


@<TRIPOS>ATOM
      1 CA         28.8043   18.2097    0.4626 C.3       0 UNK        -0.1979 
      2 C          29.3200   19.6287    0.2745 C.2       0 UNK         0.4864 
      3 O          29.8962   19.9359   -0.7698 O.2       0 UNK        -0.5359 
      4 N          29.1188   20.4932    1.2785 N.am      1 UNK        -0.4318 
      5 CA         29.5550   21.8970    1.2824 C.3       1 UNK         0.0824 
      6 C6         29.5183   22.5069    2.7055 C.3       12 UNK        -0.0944 
      7 S7         30.5638   21.5991    3.9005 S.3       12 UNK        -0.2672 
      8 C8         32.2322   22.2621    3.5743 C.3       12 UNK         0.0333 
      9 C9         32.3409   23.7377    3.9272 C.ar      12 UNK        -0.0807 
     10 C10        32.5717   24.1392    5.2462 C.ar      12 UNK        -0.0894 
     11 C11        32.6288   25.4979    5.5746 C.ar      12 UNK        -0.0804 
     12 C12        32.4200   26.4552    4.5751 C.ar      12 UNK        -0.0824 
     13 C13        32.2212   26.0645    3.2484 C.ar      12 UNK        -0.0762 
     14 C14        32.2039   24.7044    2.9293 C.ar      12 UNK        -0.0782 
     15 C15        32.0404   27.1147    2.1618 C.3       12 UNK         0.0230 
     16 S16        30.5969   26.7818    1.1001 S.3       12 UNK        -0.2608 
     17 C17        29.2101   27.0120    2.2659 C.3       12 UNK        -0.0989 
     18 CA         28.3443   28.2231    1.8478 C.3       5 UNK         0.0716 
     19 N          27.7270   28.0150    0.5356 N.am      5 UNK        -0.4135 
     20 C          27.4425   28.9816   -0.3460 C.2       4 UNK         0.5031 
     21 O          27.6433   30.1776   -0.1371 O.2       4 UNK        -0.5229 
     22 CA         26.7610   28.5449   -1.6562 C.3       4 UNK         0.0329 
     23 CB         27.8157   28.2414   -2.7320 C.3       4 UNK        -0.2001 
     24 N          25.8793   27.3825   -1.4978 N.am      4 UNK        -0.4303 
     25 C          24.8232   27.3271   -0.6725 C.2       3 UNK         0.5044 
     26 O          24.4509   28.2770    0.0155 O.2       3 UNK        -0.5152 
     27 CA         24.0715   25.9891   -0.5635 C.3       3 UNK         0.0319 
     28 CB         22.7808   26.0334   -1.3970 C.3       3 UNK        -0.2001 
     29 N          24.8544   24.8092   -0.9500 N.am      3 UNK        -0.4354 
     30 C          25.9535   24.3609   -0.3255 C.2       2 UNK         0.4964 
     31 O          26.4839   24.9422    0.6243 O.2       2 UNK        -0.5047 
     32 CA         26.5220   23.0375   -0.8730 C.3       2 UNK         0.0288 
     33 CB         27.0788   23.2058   -2.3041 C.3       2 UNK        -0.2113 
     34 N          27.5034   22.3977    0.0150 N.am      2 UNK        -0.4145 
     35 C          28.7618   22.7795    0.2913 C.2       1 UNK         0.5006 
     36 O          29.3169   23.7589   -0.2072 O.2       1 UNK        -0.5103 
     37 C          27.3288   28.6467    2.9341 C.2       5 UNK         0.5055 
     38 O          27.6911   28.6810    4.1112 O.2       5 UNK        -0.5220 
     39 N          26.0957   29.0129    2.5443 N.am      6 UNK        -0.4450 
     40 CA         25.1935   29.8211    3.3707 C.3       6 UNK         0.0367 
     41 CB         23.7668   29.7537    2.8045 C.3       6 UNK        -0.1929 
     42 C          25.6696   31.2853    3.4655 C.2       6 UNK         0.5070 
     43 O          25.3819   31.9488    4.4623 O.2       6 UNK        -0.5237 
     44 N          26.4029   31.7563    2.4447 N.am      7 UNK        -0.4739 
     45 CA         27.1541   33.0120    2.4672 C.3       7 UNK         0.0276 
     46 CB         27.3648   33.4876    1.0197 C.3       7 UNK        -0.1927 
     47 C          28.5062   32.8127    3.1751 C.2       7 UNK         0.5013 
     48 O          28.9355   31.6744    3.3812 O.2       7 UNK        -0.5193 
     49 N          29.1786   33.9222    3.5081 N.am      8 UNK        -0.4253 
     50 CA         30.4643   33.9667    4.2185 C.3       8 UNK         0.0242 
     51 CB         30.6477   35.3740    4.8189 C.3       8 UNK        -0.2000 
     52 C          31.6760   33.5241    3.3646 C.2       8 UNK         0.4948 
     53 O          32.6785   34.2389    3.2971 O.2       8 UNK        -0.5275 
     54 N          31.5689   32.3518    2.7311 N.am      9 UNK        -0.4246 
     55 CA         32.6490   31.6652    2.0257 C.3       9 UNK         0.0261 
     56 CB         32.0358   30.7013    0.9963 C.3       9 UNK        -0.1959 
     57 C          33.5465   30.9164    3.0259 C.2       9 UNK         0.5033 
     58 O          33.0514   30.4257    4.0444 O.2       9 UNK        -0.5390 
     59 N          34.8471   30.8404    2.7178 N.am      10 UNK        -0.4215 
     60 CA         35.8606   30.1863    3.5497 C.3       10 UNK         0.0240 
     61 CB         37.2583   30.5952    3.0553 C.3       10 UNK        -0.1982 
     62 C          35.7175   28.6553    3.5474 C.2       10 UNK         0.4970 
     63 O          35.3795   28.0752    2.5134 O.2       10 UNK        -0.4916 
     64 N          36.0185   28.0384    4.6956 N.am      11 UNK        -0.4279 
     65 CA         35.9482   26.5829    4.9140 C.3       11 UNK         0.1003 
     66 C          37.1587   25.7825    4.3512 C.2       11 UNK         0.5709 
     67 N          38.2056   26.4227    3.8433 N.am      11 UNK        -0.7358 
     68 O          37.1459   24.5541    4.3689 O.2       11 UNK        -0.4999 
     69 C69        35.6838   26.2308    6.4063 C.3       12 UNK        -0.0954 
     70 S70        34.2732   27.1373    7.1352 S.3       12 UNK        -0.2268 
     71 C71        32.9148   25.9250    7.0095 C.3       12 UNK         0.0203 
     72 H72        28.3217   18.0756    1.4306 H         1 UNK         0.0888 
     73 H73        28.0793   17.9678   -0.3142 H         1 UNK         0.0888 
     74 H74        29.6278   17.4994    0.3937 H         1 UNK         0.0888 
     75 H75        28.6704   20.1747    2.1262 H         1 UNK         0.3017 
     76 H76        30.5917   21.9144    0.9398 H         1 UNK         0.0873 
     77 H77        29.8089   23.5573    2.6901 H         1 UNK         0.0745 
     78 H78        28.4963   22.4982    3.0892 H         1 UNK         0.0745 
     79 H79        32.9562   21.6936    4.1599 H         1 UNK         0.0705 
     80 H80        32.4929   22.0950    2.5282 H         1 UNK         0.0705 
     81 H81        32.7006   23.3907    6.0162 H         1 UNK         0.1334 
     82 H82        32.4511   27.5074    4.8265 H         1 UNK         0.1417 
     83 H83        32.0446   24.3991    1.9037 H         1 UNK         0.1562 
     84 H84        32.9376   27.1379    1.5421 H         1 UNK         0.0748 
     85 H85        31.9413   28.1073    2.6017 H         1 UNK         0.0748 
     86 H86        28.6137   26.0978    2.2894 H         1 UNK         0.0940 
     87 H87        29.6080   27.1421    3.2739 H         1 UNK         0.0940 
     88 H88        29.0202   29.0774    1.7651 H         1 UNK         0.0703 
     89 H89        27.4979   27.0565    0.3036 H         1 UNK         0.3081 
     90 H90        26.1473   29.3801   -2.0002 H         1 UNK         0.0719 
     91 H91        28.4445   27.3943   -2.4539 H         1 UNK         0.0809 
     92 H92        27.3516   28.0162   -3.6923 H         1 UNK         0.0809 
     93 H93        28.4733   29.0984   -2.8851 H         1 UNK         0.0809 
     94 H94        26.1109   26.5557   -2.0285 H         1 UNK         0.2990 
     95 H95        23.7940   25.8669    0.4857 H         1 UNK         0.0690 
     96 H96        22.1800   25.1358   -1.2485 H         1 UNK         0.0788 
     97 H97        22.9912   26.1262   -2.4633 H         1 UNK         0.0788 
     98 H98        22.1607   26.8850   -1.1122 H         1 UNK         0.0788 
     99 H99        24.4911   24.2723   -1.7248 H         1 UNK         0.2993 
    100 H100       25.6856   22.3382   -0.9236 H         1 UNK         0.0949 
    101 H101       27.5192   22.2775   -2.6687 H         1 UNK         0.0767 
    102 H102       26.2920   23.4834   -3.0062 H         1 UNK         0.0767 
    103 H103       27.8438   23.9813   -2.3568 H         1 UNK         0.0767 
    104 H104       27.1635   21.5832    0.5062 H         1 UNK         0.3013 
    105 H105       25.8276   28.8932    1.5742 H         1 UNK         0.3121 
    106 H106       25.1793   29.4064    4.3809 H         1 UNK         0.0774 
    107 H107       23.7066   30.1929    1.8079 H         1 UNK         0.0815 
    108 H108       23.0695   30.2982    3.4424 H         1 UNK         0.0815 
    109 H109       23.4126   28.7247    2.7393 H         1 UNK         0.0815 
    110 H110       26.6346   31.1250    1.6879 H         1 UNK         0.2987 
    111 H111       26.5818   33.7668    3.0112 H         1 UNK         0.0949 
    112 H112       27.9902   32.7955    0.4542 H         1 UNK         0.0806 
    113 H113       26.4158   33.5868    0.4924 H         1 UNK         0.0806 
    114 H114       27.8522   34.4628    0.9903 H         1 UNK         0.0806 
    115 H115       28.7785   34.8167    3.2630 H         1 UNK         0.3010 
    116 H116       30.4077   33.2632    5.0522 H         1 UNK         0.0829 
    117 H117       29.8190   35.6376    5.4764 H         1 UNK         0.0813 
    118 H118       31.5589   35.4304    5.4161 H         1 UNK         0.0813 
    119 H119       30.7184   36.1373    4.0429 H         1 UNK         0.0813 
    120 H120       30.7118   31.8254    2.8865 H         1 UNK         0.3038 
    121 H121       33.2528   32.4037    1.4937 H         1 UNK         0.0769 
    122 H122       31.3224   30.0189    1.4577 H         1 UNK         0.0811 
    123 H123       32.8033   30.0972    0.5104 H         1 UNK         0.0811 
    124 H124       31.5075   31.2463    0.2139 H         1 UNK         0.0811 
    125 H125       35.1652   31.2291    1.8419 H         1 UNK         0.3204 
    126 H126       35.7367   30.5479    4.5731 H         1 UNK         0.0748 
    127 H127       38.0387   30.1600    3.6810 H         1 UNK         0.0771 
    128 H128       37.4380   30.2628    2.0318 H         1 UNK         0.0771 
    129 H129       37.3897   31.6771    3.0853 H         1 UNK         0.0771 
    130 H130       36.2987   28.5873    5.4947 H         1 UNK         0.2980 
    131 H131       35.0972   26.2140    4.3425 H         1 UNK         0.0545 
    132 H132       38.9801   25.8903    3.4792 H         1 UNK         0.3459 
    133 H133       38.2267   27.4287    3.8173 H         1 UNK         0.3459 
    134 H134       35.5093   25.1595    6.5225 H         1 UNK         0.0616 
    135 H135       36.5659   26.4598    7.0068 H         1 UNK         0.0616 
    136 H136       33.1595   25.0627    7.6316 H         1 UNK         0.0634 
    137 H137       32.0111   26.3656    7.4319 H         1 UNK         0.0634 
@<TRIPOS>BOND
     1    1    2 1    
     2    1   72 1    
     3    1   73 1    
     4    1   74 1    
     5    2    3 2    
     6    2    4 am   BACKBONE|DICT|INTERRES
     7    4    5 1    
     8    4   75 1    
     9    5    6 1    
    10    5   35 1    
    11    5   76 1    
    12    6    7 1    
    13    6   77 1    
    14    6   78 1    
    15    7    8 1    
    16    8    9 1    
    17    8   79 1    
    18    8   80 1    
    19    9   10 ar   
    20    9   14 ar   
    21   10   11 ar   
    22   10   81 1    
    23   11   12 ar   
    24   11   71 1    
    25   12   13 ar   
    26   12   82 1    
    27   13   14 ar   
    28   13   15 1    
    29   14   83 1    
    30   15   16 1    
    31   15   84 1    
    32   15   85 1    
    33   16   17 1    
    34   17   18 1    
    35   17   86 1    
    36   17   87 1    
    37   18   19 1    
    38   18   37 1    
    39   18   88 1    
    40   19   20 am   BACKBONE|DICT|INTERRES
    41   19   89 1    
    42   20   21 2    
    43   20   22 1    
    44   22   23 1    
    45   22   24 1    
    46   22   90 1    
    47   23   91 1    
    48   23   92 1    
    49   23   93 1    
    50   24   25 am   BACKBONE|DICT|INTERRES
    51   24   94 1    
    52   25   26 2    
    53   25   27 1    
    54   27   28 1    
    55   27   29 1    
    56   27   95 1    
    57   28   96 1    
    58   28   97 1    
    59   28   98 1    
    60   29   30 am   BACKBONE|DICT|INTERRES
    61   29   99 1    
    62   30   31 2    
    63   30   32 1    
    64   32   33 1    
    65   32   34 1    
    66   32  100 1    
    67   33  101 1    
    68   33  102 1    
    69   33  103 1    
    70   34   35 am   BACKBONE|DICT|INTERRES
    71   34  104 1    
    72   35   36 2    
    73   37   38 2    
    74   37   39 am   BACKBONE|DICT|INTERRES
    75   39   40 1    
    76   39  105 1    
    77   40   41 1    
    78   40   42 1    
    79   40  106 1    
    80   41  107 1    
    81   41  108 1    
    82   41  109 1    
    83   42   43 2    
    84   42   44 am   BACKBONE|DICT|INTERRES
    85   44   45 1    
    86   44  110 1    
    87   45   46 1    
    88   45   47 1    
    89   45  111 1    
    90   46  112 1    
    91   46  113 1    
    92   46  114 1    
    93   47   48 2    
    94   47   49 am   BACKBONE|DICT|INTERRES
    95   49   50 1    
    96   49  115 1    
    97   50   51 1    
    98   50   52 1    
    99   50  116 1    
   100   51  117 1    
   101   51  118 1    
   102   51  119 1    
   103   52   53 2    
   104   52   54 am   BACKBONE|DICT|INTERRES
   105   54   55 1    
   106   54  120 1    
   107   55   56 1    
   108   55   57 1    
   109   55  121 1    
   110   56  122 1    
   111   56  123 1    
   112   56  124 1    
   113   57   58 2    
   114   57   59 am   BACKBONE|DICT|INTERRES
   115   59   60 1    
   116   59  125 1    
   117   60   61 1    
   118   60   62 1    
   119   60  126 1    
   120   61  127 1    
   121   61  128 1    
   122   61  129 1    
   123   62   63 2    
   124   62   64 am   BACKBONE|DICT|INTERRES
   125   64   65 1    
   126   64  130 1    
   127   65   66 1    
   128   65   69 1    
   129   65  131 1    
   130   66   67 am   BACKBONE|DICT|INTERRES
   131   66   68 2    
   132   67  132 1    
   133   67  133 1    
   134   69   70 1    
   135   69  134 1    
   136   69  135 1    
   137   70   71 1    
   138   71  136 1    
   139   71  137 1    
@<TRIPOS>SUBSTRUCTURE
     1 UNK         1 GROUP             0       ****    0 ROOT    
