@<TRIPOS>MOLECULE
3R136
137   139    1
SMALL
USER_CHARGES


@<TRIPOS>ATOM
      1 CA         23.8191   21.6311    1.4468 C.3       0 UNK        -0.1979 
      2 C          24.5989   21.8048    0.1517 C.2       0 UNK         0.4864 
      3 O          23.9999   21.8276   -0.9252 O.2       0 UNK        -0.5359 
      4 N          25.9292   21.9175    0.2478 N.am      1 UNK        -0.4318 
      5 CA         26.8348   22.1754   -0.8751 C.3       1 UNK         0.0824 
      6 C6         28.2944   21.7687   -0.5328 C.3       12 UNK        -0.0944 
      7 S7         28.9775   22.5738    0.9596 S.3       12 UNK        -0.2672 
      8 C8         30.7661   22.3910    0.6626 C.3       12 UNK         0.0333 
      9 C9         31.6135   23.0503    1.7469 C.ar      12 UNK        -0.0807 
     10 C10        32.5967   23.9845    1.3978 C.ar      12 UNK        -0.0894 
     11 C11        33.3968   24.5747    2.3810 C.ar      12 UNK        -0.0804 
     12 C12        33.2155   24.2211    3.7178 C.ar      12 UNK        -0.0824 
     13 C13        32.2125   23.3224    4.0876 C.ar      12 UNK        -0.0762 
     14 C14        31.4266   22.7252    3.0965 C.ar      12 UNK        -0.0782 
     15 C15        31.9758   23.0094    5.5581 C.3       12 UNK         0.0230 
     16 S16        30.7084   24.0989    6.2920 S.3       12 UNK        -0.2608 
     17 C17        31.5447   25.7318    6.3113 C.3       12 UNK        -0.0989 
     18 CA         30.8715   26.8221    5.4255 C.3       5 UNK         0.0716 
     19 N          30.4614   26.2945    4.1168 N.am      5 UNK        -0.4135 
     20 C          30.1274   26.9888    3.0197 C.2       4 UNK         0.5031 
     21 O          30.2575   28.2117    2.9111 O.2       4 UNK        -0.5229 
     22 CA         29.4114   26.1764    1.9294 C.3       4 UNK         0.0329 
     23 CB         28.0124   25.7677    2.4268 C.3       4 UNK        -0.2001 
     24 N          29.2523   26.8942    0.6646 N.am      4 UNK        -0.4303 
     25 C          30.2175   27.0971   -0.2410 C.2       3 UNK         0.5044 
     26 O          31.3807   26.7189   -0.1120 O.2       3 UNK        -0.5152 
     27 CA         29.7682   27.7904   -1.5448 C.3       3 UNK         0.0319 
     28 CB         30.9259   28.0188   -2.5425 C.3       3 UNK        -0.2001 
     29 N          28.6605   27.0697   -2.1920 N.am      3 UNK        -0.4354 
     30 C          28.6707   25.7887   -2.5947 C.2       2 UNK         0.4964 
     31 O          29.6578   25.0501   -2.5572 O.2       2 UNK        -0.5047 
     32 CA         27.3500   25.2277   -3.1459 C.3       2 UNK         0.0288 
     33 CB         27.3779   25.1711   -4.6822 C.3       2 UNK        -0.2113 
     34 N          27.1347   23.8819   -2.6120 N.am      2 UNK        -0.4145 
     35 C          26.7382   23.6406   -1.3553 C.2       1 UNK         0.5006 
     36 O          26.3417   24.5239   -0.5890 O.2       1 UNK        -0.5103 
     37 C          29.7095   27.5572    6.1432 C.2       5 UNK         0.5055 
     38 O          29.3283   27.2070    7.2616 O.2       5 UNK        -0.5220 
     39 N          29.1654   28.5703    5.4701 N.am      6 UNK        -0.4450 
     40 CA         28.0798   29.4512    5.8764 C.3       6 UNK         0.0367 
     41 CB         26.7276   28.7578    5.6160 C.3       6 UNK        -0.1929 
     42 C          28.2310   30.7490    5.0699 C.2       6 UNK         0.5070 
     43 O          29.1963   30.8858    4.3127 O.2       6 UNK        -0.5237 
     44 N          27.2646   31.6683    5.1957 N.am      7 UNK        -0.4739 
     45 CA         27.2347   32.9894    4.5427 C.3       7 UNK         0.0276 
     46 CB         25.9479   33.7195    4.9626 C.3       7 UNK        -0.1927 
     47 C          27.3769   32.9946    3.0034 C.2       7 UNK         0.5013 
     48 O          27.6526   34.0490    2.4303 O.2       7 UNK        -0.5193 
     49 N          27.2112   31.8265    2.3683 N.am      8 UNK        -0.4253 
     50 CA         27.4808   31.5702    0.9542 C.3       8 UNK         0.0242 
     51 CB         27.0090   30.1474    0.6090 C.3       8 UNK        -0.2000 
     52 C          28.9582   31.7472    0.5493 C.2       8 UNK         0.4948 
     53 O          29.2066   32.0715   -0.6131 O.2       8 UNK        -0.5275 
     54 N          29.9047   31.5277    1.4766 N.am      9 UNK        -0.4246 
     55 CA         31.3446   31.6434    1.2040 C.3       9 UNK         0.0261 
     56 CB         31.8503   30.3976    0.4531 C.3       9 UNK        -0.1959 
     57 C          32.2171   31.9011    2.4419 C.2       9 UNK         0.5033 
     58 O          33.3020   32.4622    2.2815 O.2       9 UNK        -0.5390 
     59 N          31.7690   31.4824    3.6355 N.am      10 UNK        -0.4215 
     60 CA         32.4645   31.5668    4.9284 C.3       10 UNK         0.0240 
     61 CB         32.5811   33.0346    5.3910 C.3       10 UNK        -0.1982 
     62 C          33.8125   30.8135    4.9692 C.2       10 UNK         0.4970 
     63 O          34.7043   31.1928    5.7298 O.2       10 UNK        -0.4916 
     64 N          33.9325   29.7526    4.1619 N.am      11 UNK        -0.4279 
     65 CA         35.1300   28.9082    4.0196 C.3       11 UNK         0.1003 
     66 C          35.3413   27.8563    5.1507 C.2       11 UNK         0.5709 
     67 N          34.5141   27.8135    6.1887 N.am      11 UNK        -0.7358 
     68 O          36.2858   27.0726    5.0950 O.2       11 UNK        -0.4999 
     69 C69        35.2065   28.2927    2.5958 C.3       12 UNK        -0.0954 
     70 S70        33.7436   27.2888    2.1756 S.3       12 UNK        -0.2268 
     71 C71        34.4432   25.6173    2.0233 C.3       12 UNK         0.0203 
     72 H72        24.4742   21.6161    2.3178 H         1 UNK         0.0888 
     73 H73        23.1104   22.4496    1.5701 H         1 UNK         0.0888 
     74 H74        23.2606   20.6957    1.4266 H         1 UNK         0.0888 
     75 H75        26.3681   21.9295    1.1576 H         1 UNK         0.3017 
     76 H76        26.5083   21.5468   -1.7068 H         1 UNK         0.0873 
     77 H77        28.9517   21.9708   -1.3809 H         1 UNK         0.0745 
     78 H78        28.3422   20.6897   -0.3776 H         1 UNK         0.0745 
     79 H79        31.0014   22.8168   -0.3145 H         1 UNK         0.0705 
     80 H80        31.0157   21.3304    0.6115 H         1 UNK         0.0705 
     81 H81        32.7332   24.2656    0.3621 H         1 UNK         0.1334 
     82 H82        33.8444   24.6751    4.4707 H         1 UNK         0.1417 
     83 H83        30.6583   22.0165    3.3752 H         1 UNK         0.1562 
     84 H84        32.9048   23.0964    6.1240 H         1 UNK         0.0748 
     85 H85        31.6528   21.9728    5.6658 H         1 UNK         0.0748 
     86 H86        32.5780   25.6090    5.9963 H         1 UNK         0.0940 
     87 H87        31.6296   26.0621    7.3485 H         1 UNK         0.0940 
     88 H88        31.6277   27.5863    5.2343 H         1 UNK         0.0703 
     89 H89        30.3168   25.2945    4.1079 H         1 UNK         0.3081 
     90 H90        29.9979   25.2786    1.7370 H         1 UNK         0.0719 
     91 H91        28.0712   25.1487    3.3228 H         1 UNK         0.0809 
     92 H92        27.3997   26.6370    2.6697 H         1 UNK         0.0809 
     93 H93        27.4804   25.1829    1.6779 H         1 UNK         0.0809 
     94 H94        28.3245   27.2309    0.4597 H         1 UNK         0.2990 
     95 H95        29.3855   28.7710   -1.2573 H         1 UNK         0.0690 
     96 H96        30.5899   28.5732   -3.4185 H         1 UNK         0.0788 
     97 H97        31.3594   27.0793   -2.8863 H         1 UNK         0.0788 
     98 H98        31.7330   28.5913   -2.0855 H         1 UNK         0.0788 
     99 H99        27.7974   27.5881   -2.2811 H         1 UNK         0.2993 
    100 H100       26.5223   25.8698   -2.8356 H         1 UNK         0.0949 
    101 H101       28.1911   24.5435   -5.0497 H         1 UNK         0.0767 
    102 H102       26.4428   24.7776   -5.0817 H         1 UNK         0.0767 
    103 H103       27.5179   26.1666   -5.1058 H         1 UNK         0.0767 
    104 H104       27.4818   23.1173   -3.1727 H         1 UNK         0.3013 
    105 H105       29.5567   28.7972    4.5553 H         1 UNK         0.3121 
    106 H106       28.1829   29.6908    6.9365 H         1 UNK         0.0774 
    107 H107       26.5771   28.5557    4.5547 H         1 UNK         0.0815 
    108 H108       26.6625   27.8072    6.1458 H         1 UNK         0.0815 
    109 H109       25.8912   29.3676    5.9581 H         1 UNK         0.0815 
    110 H110       26.4993   31.4709    5.8249 H         1 UNK         0.2987 
    111 H111       28.0869   33.5527    4.9288 H         1 UNK         0.0949 
    112 H112       25.8924   33.8388    6.0448 H         1 UNK         0.0806 
    113 H113       25.9037   34.7195    4.5284 H         1 UNK         0.0806 
    114 H114       25.0562   33.1832    4.6357 H         1 UNK         0.0806 
    115 H115       26.9909   31.0236    2.9381 H         1 UNK         0.3010 
    116 H116       26.8930   32.2821    0.3708 H         1 UNK         0.0829 
    117 H117       27.5516   29.3950    1.1832 H         1 UNK         0.0813 
    118 H118       27.1656   29.9304   -0.4485 H         1 UNK         0.0813 
    119 H119       25.9447   30.0215    0.8088 H         1 UNK         0.0813 
    120 H120       29.6168   31.2763    2.4171 H         1 UNK         0.3038 
    121 H121       31.4940   32.5107    0.5568 H         1 UNK         0.0769 
    122 H122       31.3647   30.2994   -0.5162 H         1 UNK         0.0811 
    123 H123       31.6648   29.4846    1.0190 H         1 UNK         0.0811 
    124 H124       32.9242   30.4530    0.2695 H         1 UNK         0.0811 
    125 H125       30.8412   31.0664    3.6998 H         1 UNK         0.3204 
    126 H126       31.8194   31.0531    5.6427 H         1 UNK         0.0748 
    127 H127       33.2593   33.6061    4.7566 H         1 UNK         0.0771 
    128 H128       31.6105   33.5308    5.3777 H         1 UNK         0.0771 
    129 H129       32.9604   33.0966    6.4117 H         1 UNK         0.0771 
    130 H130       33.1502   29.4929    3.5785 H         1 UNK         0.2980 
    131 H131       35.9928   29.5711    4.1063 H         1 UNK         0.0545 
    132 H132       33.7760   28.4902    6.2792 H         1 UNK         0.3459 
    133 H133       34.6844   27.1441    6.9217 H         1 UNK         0.3459 
    134 H134       36.1192   27.7087    2.4672 H         1 UNK         0.0616 
    135 H135       35.2712   29.0955    1.8597 H         1 UNK         0.0616 
    136 H136       34.8071   25.4688    1.0057 H         1 UNK         0.0634 
    137 H137       35.3048   25.5096    2.6840 H         1 UNK         0.0634 
@<TRIPOS>BOND
     1    1    2 1    
     2    1   72 1    
     3    1   73 1    
     4    1   74 1    
     5    2    3 2    
     6    2    4 am   BACKBONE|DICT|INTERRES
     7    4    5 1    
     8    4   75 1    
     9    5    6 1    
    10    5   35 1    
    11    5   76 1    
    12    6    7 1    
    13    6   77 1    
    14    6   78 1    
    15    7    8 1    
    16    8    9 1    
    17    8   79 1    
    18    8   80 1    
    19    9   10 ar   
    20    9   14 ar   
    21   10   11 ar   
    22   10   81 1    
    23   11   12 ar   
    24   11   71 1    
    25   12   13 ar   
    26   12   82 1    
    27   13   14 ar   
    28   13   15 1    
    29   14   83 1    
    30   15   16 1    
    31   15   84 1    
    32   15   85 1    
    33   16   17 1    
    34   17   18 1    
    35   17   86 1    
    36   17   87 1    
    37   18   19 1    
    38   18   37 1    
    39   18   88 1    
    40   19   20 am   BACKBONE|DICT|INTERRES
    41   19   89 1    
    42   20   21 2    
    43   20   22 1    
    44   22   23 1    
    45   22   24 1    
    46   22   90 1    
    47   23   91 1    
    48   23   92 1    
    49   23   93 1    
    50   24   25 am   BACKBONE|DICT|INTERRES
    51   24   94 1    
    52   25   26 2    
    53   25   27 1    
    54   27   28 1    
    55   27   29 1    
    56   27   95 1    
    57   28   96 1    
    58   28   97 1    
    59   28   98 1    
    60   29   30 am   BACKBONE|DICT|INTERRES
    61   29   99 1    
    62   30   31 2    
    63   30   32 1    
    64   32   33 1    
    65   32   34 1    
    66   32  100 1    
    67   33  101 1    
    68   33  102 1    
    69   33  103 1    
    70   34   35 am   BACKBONE|DICT|INTERRES
    71   34  104 1    
    72   35   36 2    
    73   37   38 2    
    74   37   39 am   BACKBONE|DICT|INTERRES
    75   39   40 1    
    76   39  105 1    
    77   40   41 1    
    78   40   42 1    
    79   40  106 1    
    80   41  107 1    
    81   41  108 1    
    82   41  109 1    
    83   42   43 2    
    84   42   44 am   BACKBONE|DICT|INTERRES
    85   44   45 1    
    86   44  110 1    
    87   45   46 1    
    88   45   47 1    
    89   45  111 1    
    90   46  112 1    
    91   46  113 1    
    92   46  114 1    
    93   47   48 2    
    94   47   49 am   BACKBONE|DICT|INTERRES
    95   49   50 1    
    96   49  115 1    
    97   50   51 1    
    98   50   52 1    
    99   50  116 1    
   100   51  117 1    
   101   51  118 1    
   102   51  119 1    
   103   52   53 2    
   104   52   54 am   BACKBONE|DICT|INTERRES
   105   54   55 1    
   106   54  120 1    
   107   55   56 1    
   108   55   57 1    
   109   55  121 1    
   110   56  122 1    
   111   56  123 1    
   112   56  124 1    
   113   57   58 2    
   114   57   59 am   BACKBONE|DICT|INTERRES
   115   59   60 1    
   116   59  125 1    
   117   60   61 1    
   118   60   62 1    
   119   60  126 1    
   120   61  127 1    
   121   61  128 1    
   122   61  129 1    
   123   62   63 2    
   124   62   64 am   BACKBONE|DICT|INTERRES
   125   64   65 1    
   126   64  130 1    
   127   65   66 1    
   128   65   69 1    
   129   65  131 1    
   130   66   67 am   BACKBONE|DICT|INTERRES
   131   66   68 2    
   132   67  132 1    
   133   67  133 1    
   134   69   70 1    
   135   69  134 1    
   136   69  135 1    
   137   70   71 1    
   138   71  136 1    
   139   71  137 1    
@<TRIPOS>SUBSTRUCTURE
     1 UNK         1 GROUP             0       ****    0 ROOT    
