@<TRIPOS>MOLECULE
3R136
137   139    1
SMALL
USER_CHARGES


@<TRIPOS>ATOM
      1 CA         27.6903   21.6278   -2.6442 C.3       0 UNK        -0.1979 
      2 C          28.0912   22.6044   -1.5496 C.2       0 UNK         0.4864 
      3 O          28.2797   23.7878   -1.8309 O.2       0 UNK        -0.5359 
      4 N          28.2286   22.1149   -0.3097 N.am      1 UNK        -0.4318 
      5 CA         28.5830   22.8931    0.8824 C.3       1 UNK         0.0824 
      6 C6         28.9811   21.9907    2.0834 C.3       12 UNK        -0.0944 
      7 S7         30.2607   20.7625    1.6514 S.3       12 UNK        -0.2672 
      8 C8         31.7074   21.3514    2.5883 C.3       12 UNK         0.0333 
      9 C9         32.2671   22.6680    2.0637 C.ar      12 UNK        -0.0807 
     10 C10        32.5020   23.7262    2.9450 C.ar      12 UNK        -0.0894 
     11 C11        33.0602   24.9226    2.4870 C.ar      12 UNK        -0.0804 
     12 C12        33.3833   25.0606    1.1342 C.ar      12 UNK        -0.0824 
     13 C13        33.1433   24.0133    0.2380 C.ar      12 UNK        -0.0762 
     14 C14        32.5933   22.8180    0.7119 C.ar      12 UNK        -0.0782 
     15 C15        33.4926   24.1515   -1.2399 C.3       12 UNK         0.0230 
     16 S16        32.7655   25.6261   -2.0297 S.3       12 UNK        -0.2608 
     17 C17        30.9793   25.4027   -1.7228 C.3       12 UNK        -0.0989 
     18 CA         30.2771   26.7265   -1.3333 C.3       5 UNK         0.0716 
     19 N          28.8248   26.6579   -1.5286 N.am      5 UNK        -0.4135 
     20 C          28.0485   27.7477   -1.6244 C.2       4 UNK         0.5031 
     21 O          28.4941   28.8931   -1.6905 O.2       4 UNK        -0.5229 
     22 CA         26.5304   27.5492   -1.5814 C.3       4 UNK         0.0329 
     23 CB         26.0467   26.3535   -2.4219 C.3       4 UNK        -0.2001 
     24 N          26.1352   27.3593   -0.1892 N.am      4 UNK        -0.4303 
     25 C          25.4678   28.2429    0.5674 C.2       3 UNK         0.5044 
     26 O          25.0784   29.3391    0.1638 O.2       3 UNK        -0.5152 
     27 CA         25.1374   27.7917    2.0023 C.3       3 UNK         0.0319 
     28 CB         24.0038   28.6063    2.6524 C.3       3 UNK        -0.2001 
     29 N          24.7711   26.3799    1.9568 N.am      3 UNK        -0.4354 
     30 C          25.2602   25.4187    2.7441 C.2       2 UNK         0.4964 
     31 O          25.8595   25.6210    3.8001 O.2       2 UNK        -0.5047 
     32 CA         25.1079   23.9760    2.2223 C.3       2 UNK         0.0288 
     33 CB         24.1672   23.8427    1.0011 C.3       2 UNK        -0.2113 
     34 N          26.3973   23.3487    1.8979 N.am      2 UNK        -0.4145 
     35 C          27.4379   23.8698    1.2222 C.2       1 UNK         0.5006 
     36 O          27.5072   25.0382    0.8265 O.2       1 UNK        -0.5103 
     37 C          30.6254   27.1969    0.0982 C.2       5 UNK         0.5055 
     38 O          31.6007   27.9265    0.2720 O.2       5 UNK        -0.5220 
     39 N          29.7935   26.8352    1.0869 N.am      6 UNK        -0.4450 
     40 CA         29.9144   27.2579    2.4850 C.3       6 UNK         0.0367 
     41 CB         29.5287   26.0792    3.3965 C.3       6 UNK        -0.1929 
     42 C          29.0840   28.5224    2.7877 C.2       6 UNK         0.5070 
     43 O          28.5467   28.6498    3.8884 O.2       6 UNK        -0.5237 
     44 N          28.9608   29.4317    1.8116 N.am      7 UNK        -0.4739 
     45 CA         28.2366   30.6961    1.9498 C.3       7 UNK         0.0276 
     46 CB         28.0099   31.3099    0.5596 C.3       7 UNK        -0.1927 
     47 C          28.9872   31.6983    2.8415 C.2       7 UNK         0.5013 
     48 O          30.1844   31.9165    2.6373 O.2       7 UNK        -0.5193 
     49 N          28.2480   32.3369    3.7598 N.am      8 UNK        -0.4253 
     50 CA         28.6714   33.4459    4.6219 C.3       8 UNK         0.0242 
     51 CB         28.7398   34.7525    3.7967 C.3       8 UNK        -0.2000 
     52 C          29.9591   33.1352    5.4123 C.2       8 UNK         0.4948 
     53 O          29.9220   32.3020    6.3184 O.2       8 UNK        -0.5275 
     54 N          31.0596   33.8149    5.0664 N.am      9 UNK        -0.4246 
     55 CA         32.3642   33.7023    5.7175 C.3       9 UNK         0.0261 
     56 CB         33.1372   35.0142    5.4961 C.3       9 UNK        -0.1959 
     57 C          33.2042   32.4986    5.2515 C.2       9 UNK         0.5033 
     58 O          34.2527   32.2543    5.8539 O.2       9 UNK        -0.5390 
     59 N          32.7822   31.7793    4.1980 N.am      10 UNK        -0.4215 
     60 CA         33.5052   30.6194    3.6653 C.3       10 UNK         0.0240 
     61 CB         32.8419   30.1329    2.3699 C.3       10 UNK        -0.1982 
     62 C          33.5946   29.4864    4.7015 C.2       10 UNK         0.4970 
     63 O          32.5665   29.0784    5.2450 O.2       10 UNK        -0.4916 
     64 N          34.8274   29.0330    4.9603 N.am      11 UNK        -0.4279 
     65 CA         35.2085   28.0979    6.0343 C.3       11 UNK         0.1003 
     66 C          35.0891   28.6861    7.4758 C.2       11 UNK         0.5709 
     67 N          34.8814   29.9852    7.6613 N.am      11 UNK        -0.7358 
     68 O          35.2267   27.9567    8.4554 O.2       11 UNK        -0.4999 
     69 C69        34.5479   26.6935    5.9133 C.3       12 UNK        -0.0954 
     70 S70        34.8889   25.8571    4.3274 S.3       12 UNK        -0.2268 
     71 C71        33.3037   26.0621    3.4612 C.3       12 UNK         0.0203 
     72 H72        28.4529   21.6053   -3.4220 H         1 UNK         0.0888 
     73 H73        27.5642   20.6150   -2.2621 H         1 UNK         0.0888 
     74 H74        26.7499   21.9404   -3.0971 H         1 UNK         0.0888 
     75 H75        28.0810   21.1285   -0.1515 H         1 UNK         0.3017 
     76 H76        29.4549   23.5004    0.6321 H         1 UNK         0.0873 
     77 H77        28.1274   21.4245    2.4584 H         1 UNK         0.0745 
     78 H78        29.3292   22.6033    2.9174 H         1 UNK         0.0745 
     79 H79        31.4374   21.4301    3.6426 H         1 UNK         0.0705 
     80 H80        32.4909   20.5949    2.5291 H         1 UNK         0.0705 
     81 H81        32.2626   23.6185    3.9942 H         1 UNK         0.1334 
     82 H82        33.8107   25.9872    0.7752 H         1 UNK         0.1417 
     83 H83        32.4194   21.9966    0.0298 H         1 UNK         0.1562 
     84 H84        33.1721   23.2706   -1.7984 H         1 UNK         0.0748 
     85 H85        34.5776   24.1997   -1.3402 H         1 UNK         0.0748 
     86 H86        30.8037   24.6332   -0.9709 H         1 UNK         0.0940 
     87 H87        30.5495   25.0148   -2.6477 H         1 UNK         0.0940 
     88 H88        30.6489   27.4964   -2.0138 H         1 UNK         0.0703 
     89 H89        28.4081   25.7291   -1.5049 H         1 UNK         0.3081 
     90 H90        26.0740   28.4521   -1.9930 H         1 UNK         0.0719 
     91 H91        26.4855   26.3660   -3.4206 H         1 UNK         0.0809 
     92 H92        26.2933   25.3983   -1.9605 H         1 UNK         0.0809 
     93 H93        24.9640   26.3815   -2.5450 H         1 UNK         0.0809 
     94 H94        26.4740   26.5058    0.2500 H         1 UNK         0.2990 
     95 H95        26.0468   27.9248    2.5920 H         1 UNK         0.0690 
     96 H96        24.2722   29.6610    2.7258 H         1 UNK         0.0788 
     97 H97        23.7955   28.2545    3.6629 H         1 UNK         0.0788 
     98 H98        23.0799   28.5408    2.0766 H         1 UNK         0.0788 
     99 H99        24.2828   26.0911    1.1198 H         1 UNK         0.2993 
    100 H100       24.6735   23.4034    3.0435 H         1 UNK         0.0949 
    101 H101       24.0148   22.7944    0.7433 H         1 UNK         0.0767 
    102 H102       23.1806   24.2604    1.2077 H         1 UNK         0.0767 
    103 H103       24.5683   24.3372    0.1149 H         1 UNK         0.0767 
    104 H104       26.4770   22.3846    2.1871 H         1 UNK         0.3013 
    105 H105       28.9851   26.2610    0.8636 H         1 UNK         0.3121 
    106 H106       30.9531   27.5109    2.6988 H         1 UNK         0.0774 
    107 H107       29.7529   26.3035    4.4400 H         1 UNK         0.0815 
    108 H108       28.4640   25.8574    3.3342 H         1 UNK         0.0815 
    109 H109       30.0747   25.1744    3.1342 H         1 UNK         0.0815 
    110 H110       29.4587   29.2844    0.9445 H         1 UNK         0.2987 
    111 H111       27.2607   30.4829    2.3919 H         1 UNK         0.0949 
    112 H112       27.4939   32.2682    0.6329 H         1 UNK         0.0806 
    113 H113       28.9511   31.4843    0.0364 H         1 UNK         0.0806 
    114 H114       27.3949   30.6646   -0.0657 H         1 UNK         0.0806 
    115 H115       27.2847   32.0532    3.8715 H         1 UNK         0.3010 
    116 H116       27.8867   33.5738    5.3694 H         1 UNK         0.0829 
    117 H117       29.4531   34.6874    2.9741 H         1 UNK         0.0813 
    118 H118       27.7675   34.9888    3.3639 H         1 UNK         0.0813 
    119 H119       29.0212   35.6024    4.4204 H         1 UNK         0.0813 
    120 H120       30.9961   34.4549    4.2877 H         1 UNK         0.3038 
    121 H121       32.2061   33.5818    6.7915 H         1 UNK         0.0769 
    122 H122       33.3356   35.1928    4.4385 H         1 UNK         0.0811 
    123 H123       34.1003   34.9932    6.0084 H         1 UNK         0.0811 
    124 H124       32.5865   35.8708    5.8853 H         1 UNK         0.0811 
    125 H125       31.8884   31.9972    3.7666 H         1 UNK         0.3204 
    126 H126       34.5144   30.9544    3.4160 H         1 UNK         0.0748 
    127 H127       33.4038   29.3104    1.9259 H         1 UNK         0.0771 
    128 H128       31.8288   29.7757    2.5494 H         1 UNK         0.0771 
    129 H129       32.7867   30.9270    1.6253 H         1 UNK         0.0771 
    130 H130       35.6038   29.4450    4.4636 H         1 UNK         0.2980 
    131 H131       36.2806   27.9502    5.9013 H         1 UNK         0.0545 
    132 H132       34.8254   30.3373    8.6033 H         1 UNK         0.3459 
    133 H133       34.7583   30.6237    6.8824 H         1 UNK         0.3459 
    134 H134       33.4739   26.7523    6.0917 H         1 UNK         0.0616 
    135 H135       34.9335   26.0321    6.6909 H         1 UNK         0.0616 
    136 H136       32.4817   26.1016    4.1766 H         1 UNK         0.0634 
    137 H137       33.3051   27.0185    2.9378 H         1 UNK         0.0634 
@<TRIPOS>BOND
     1    1    2 1    
     2    1   72 1    
     3    1   73 1    
     4    1   74 1    
     5    2    3 2    
     6    2    4 am   BACKBONE|DICT|INTERRES
     7    4    5 1    
     8    4   75 1    
     9    5    6 1    
    10    5   35 1    
    11    5   76 1    
    12    6    7 1    
    13    6   77 1    
    14    6   78 1    
    15    7    8 1    
    16    8    9 1    
    17    8   79 1    
    18    8   80 1    
    19    9   10 ar   
    20    9   14 ar   
    21   10   11 ar   
    22   10   81 1    
    23   11   12 ar   
    24   11   71 1    
    25   12   13 ar   
    26   12   82 1    
    27   13   14 ar   
    28   13   15 1    
    29   14   83 1    
    30   15   16 1    
    31   15   84 1    
    32   15   85 1    
    33   16   17 1    
    34   17   18 1    
    35   17   86 1    
    36   17   87 1    
    37   18   19 1    
    38   18   37 1    
    39   18   88 1    
    40   19   20 am   BACKBONE|DICT|INTERRES
    41   19   89 1    
    42   20   21 2    
    43   20   22 1    
    44   22   23 1    
    45   22   24 1    
    46   22   90 1    
    47   23   91 1    
    48   23   92 1    
    49   23   93 1    
    50   24   25 am   BACKBONE|DICT|INTERRES
    51   24   94 1    
    52   25   26 2    
    53   25   27 1    
    54   27   28 1    
    55   27   29 1    
    56   27   95 1    
    57   28   96 1    
    58   28   97 1    
    59   28   98 1    
    60   29   30 am   BACKBONE|DICT|INTERRES
    61   29   99 1    
    62   30   31 2    
    63   30   32 1    
    64   32   33 1    
    65   32   34 1    
    66   32  100 1    
    67   33  101 1    
    68   33  102 1    
    69   33  103 1    
    70   34   35 am   BACKBONE|DICT|INTERRES
    71   34  104 1    
    72   35   36 2    
    73   37   38 2    
    74   37   39 am   BACKBONE|DICT|INTERRES
    75   39   40 1    
    76   39  105 1    
    77   40   41 1    
    78   40   42 1    
    79   40  106 1    
    80   41  107 1    
    81   41  108 1    
    82   41  109 1    
    83   42   43 2    
    84   42   44 am   BACKBONE|DICT|INTERRES
    85   44   45 1    
    86   44  110 1    
    87   45   46 1    
    88   45   47 1    
    89   45  111 1    
    90   46  112 1    
    91   46  113 1    
    92   46  114 1    
    93   47   48 2    
    94   47   49 am   BACKBONE|DICT|INTERRES
    95   49   50 1    
    96   49  115 1    
    97   50   51 1    
    98   50   52 1    
    99   50  116 1    
   100   51  117 1    
   101   51  118 1    
   102   51  119 1    
   103   52   53 2    
   104   52   54 am   BACKBONE|DICT|INTERRES
   105   54   55 1    
   106   54  120 1    
   107   55   56 1    
   108   55   57 1    
   109   55  121 1    
   110   56  122 1    
   111   56  123 1    
   112   56  124 1    
   113   57   58 2    
   114   57   59 am   BACKBONE|DICT|INTERRES
   115   59   60 1    
   116   59  125 1    
   117   60   61 1    
   118   60   62 1    
   119   60  126 1    
   120   61  127 1    
   121   61  128 1    
   122   61  129 1    
   123   62   63 2    
   124   62   64 am   BACKBONE|DICT|INTERRES
   125   64   65 1    
   126   64  130 1    
   127   65   66 1    
   128   65   69 1    
   129   65  131 1    
   130   66   67 am   BACKBONE|DICT|INTERRES
   131   66   68 2    
   132   67  132 1    
   133   67  133 1    
   134   69   70 1    
   135   69  134 1    
   136   69  135 1    
   137   70   71 1    
   138   71  136 1    
   139   71  137 1    
@<TRIPOS>SUBSTRUCTURE
     1 UNK         1 GROUP             0       ****    0 ROOT    
