@<TRIPOS>MOLECULE
3R136
137   139    1
SMALL
USER_CHARGES


@<TRIPOS>ATOM
      1 CA         25.6737   19.4572    1.0795 C.3       0 UNK        -0.1979 
      2 C          26.3170   20.7112    0.5089 C.2       0 UNK         0.4864 
      3 O          25.6762   21.7632    0.4677 O.2       0 UNK        -0.5359 
      4 N          27.5859   20.6195    0.0837 N.am      1 UNK        -0.4318 
      5 CA         28.3525   21.7252   -0.5062 C.3       1 UNK         0.0824 
      6 C6         29.7165   21.2661   -1.0760 C.3       12 UNK        -0.0944 
      7 S7         30.8604   20.5757    0.1721 S.3       12 UNK        -0.2672 
      8 C8         32.3636   21.5647   -0.1112 C.3       12 UNK         0.0333 
      9 C9         32.2968   22.9538    0.5143 C.ar      12 UNK        -0.0807 
     10 C10        32.6166   23.1265    1.8644 C.ar      12 UNK        -0.0894 
     11 C11        32.6709   24.4061    2.4263 C.ar      12 UNK        -0.0804 
     12 C12        32.3854   25.5163    1.6265 C.ar      12 UNK        -0.0824 
     13 C13        32.0256   25.3615    0.2828 C.ar      12 UNK        -0.0762 
     14 C14        31.9904   24.0743   -0.2662 C.ar      12 UNK        -0.0782 
     15 C15        31.7244   26.5680   -0.6093 C.3       12 UNK         0.0230 
     16 S16        30.9392   27.9831    0.2449 S.3       12 UNK        -0.2608 
     17 C17        29.3230   27.2713    0.6950 C.3       12 UNK        -0.0989 
     18 CA         28.1959   27.6802   -0.2906 C.3       5 UNK         0.0716 
     19 N          27.1623   26.6459   -0.3618 N.am      5 UNK        -0.4135 
     20 C          26.0789   26.6440   -1.1503 C.2       4 UNK         0.5031 
     21 O          25.8156   27.5319   -1.9631 O.2       4 UNK        -0.5229 
     22 CA         25.1343   25.4307   -1.0353 C.3       4 UNK         0.0329 
     23 CB         25.4510   24.3976   -2.1285 C.3       4 UNK        -0.2001 
     24 N          25.1852   24.7748    0.2751 N.am      4 UNK        -0.4303 
     25 C          24.6891   25.2971    1.4065 C.2       3 UNK         0.5044 
     26 O          24.0629   26.3559    1.4566 O.2       3 UNK        -0.5152 
     27 CA         24.9440   24.5135    2.7042 C.3       3 UNK         0.0319 
     28 CB         23.8453   23.4633    2.9350 C.3       3 UNK        -0.2001 
     29 N          26.2559   23.8630    2.7016 N.am      3 UNK        -0.4354 
     30 C          27.4131   24.4965    2.9468 C.2       2 UNK         0.4964 
     31 O          27.4908   25.6848    3.2555 O.2       2 UNK        -0.5047 
     32 CA         28.7048   23.6710    2.8095 C.3       2 UNK         0.0288 
     33 CB         29.0303   22.9637    4.1344 C.3       2 UNK        -0.2113 
     34 N          28.6468   22.6713    1.7427 N.am      2 UNK        -0.4145 
     35 C          28.4940   22.9361    0.4372 C.2       1 UNK         0.5006 
     36 O          28.4001   24.0698   -0.0270 O.2       1 UNK        -0.5103 
     37 C          27.6345   29.0668    0.0857 C.2       5 UNK         0.5055 
     38 O          26.6932   29.1633    0.8770 O.2       5 UNK        -0.5220 
     39 N          28.2799   30.1181   -0.4375 N.am      6 UNK        -0.4450 
     40 CA         28.0385   31.5122   -0.0542 C.3       6 UNK         0.0367 
     41 CB         28.6851   32.4426   -1.0938 C.3       6 UNK        -0.1929 
     42 C          28.5595   31.8449    1.3574 C.2       6 UNK         0.5070 
     43 O          28.0612   32.7906    1.9678 O.2       6 UNK        -0.5237 
     44 N          29.5480   31.0703    1.8375 N.am      7 UNK        -0.4739 
     45 CA         30.2064   31.1694    3.1476 C.3       7 UNK         0.0276 
     46 CB         29.2314   30.7756    4.2770 C.3       7 UNK        -0.1927 
     47 C          30.8837   32.5354    3.3823 C.2       7 UNK         0.5013 
     48 O          30.8051   33.0939    4.4791 O.2       7 UNK        -0.5193 
     49 N          31.5313   33.0587    2.3319 N.am      8 UNK        -0.4253 
     50 CA         32.2261   34.3464    2.3129 C.3       8 UNK         0.0242 
     51 CB         32.4517   34.7665    0.8484 C.3       8 UNK        -0.2000 
     52 C          33.5396   34.2863    3.1137 C.2       8 UNK         0.4948 
     53 O          34.6062   34.0933    2.5275 O.2       8 UNK        -0.5275 
     54 N          33.4195   34.4223    4.4426 N.am      9 UNK        -0.4246 
     55 CA         34.4875   34.3527    5.4501 C.3       9 UNK         0.0261 
     56 CB         35.4771   35.5275    5.2904 C.3       9 UNK        -0.1959 
     57 C          35.1853   32.9773    5.4959 C.2       9 UNK         0.5033 
     58 O          36.3942   32.9034    5.7274 O.2       9 UNK        -0.5390 
     59 N          34.4066   31.9114    5.2830 N.am      10 UNK        -0.4215 
     60 CA         34.8339   30.5167    5.2833 C.3       10 UNK         0.0240 
     61 CB         35.4698   30.1621    3.9257 C.3       10 UNK        -0.1982 
     62 C          33.6076   29.6408    5.5564 C.2       10 UNK         0.4970 
     63 O          32.4816   30.0937    5.3412 O.2       10 UNK        -0.4916 
     64 N          33.8499   28.4024    6.0015 N.am      11 UNK        -0.4279 
     65 CA         32.8264   27.3805    6.2870 C.3       11 UNK         0.1003 
     66 C          31.9118   27.6839    7.5161 C.2       11 UNK         0.5709 
     67 N          32.2780   28.6092    8.3957 N.am      11 UNK        -0.7358 
     68 O          30.8730   27.0546    7.7005 O.2       11 UNK        -0.4999 
     69 C69        32.0389   26.9654    5.0059 C.3       12 UNK        -0.0954 
     70 S70        31.7241   25.1692    4.9341 S.3       12 UNK        -0.2268 
     71 C71        33.0904   24.5870    3.8802 C.3       12 UNK         0.0203 
     72 H72        25.3587   19.6325    2.1077 H         1 UNK         0.0888 
     73 H73        24.7942   19.1899    0.4945 H         1 UNK         0.0888 
     74 H74        26.3575   18.6086    1.0727 H         1 UNK         0.0888 
     75 H75        28.0751   19.7378    0.1520 H         1 UNK         0.3017 
     76 H76        27.7620   22.0760   -1.3550 H         1 UNK         0.0873 
     77 H77        30.1942   22.0926   -1.6040 H         1 UNK         0.0745 
     78 H78        29.5530   20.4994   -1.8349 H         1 UNK         0.0745 
     79 H79        32.5614   21.6326   -1.1821 H         1 UNK         0.0705 
     80 H80        33.2124   21.0248    0.3113 H         1 UNK         0.0705 
     81 H81        32.8569   22.2623    2.4687 H         1 UNK         0.1334 
     82 H82        32.4486   26.5066    2.0500 H         1 UNK         0.1417 
     83 H83        31.7484   23.9471   -1.3124 H         1 UNK         0.1562 
     84 H84        31.0800   26.2707   -1.4384 H         1 UNK         0.0748 
     85 H85        32.6608   26.9089   -1.0524 H         1 UNK         0.0748 
     86 H86        29.0813   27.5500    1.7236 H         1 UNK         0.0940 
     87 H87        29.4387   26.1899    0.7256 H         1 UNK         0.0940 
     88 H88        28.6108   27.7418   -1.2990 H         1 UNK         0.0703 
     89 H89        27.3329   25.8155    0.1921 H         1 UNK         0.3081 
     90 H90        24.1154   25.7909   -1.1929 H         1 UNK         0.0719 
     91 H91        25.3417   24.8360   -3.1213 H         1 UNK         0.0809 
     92 H92        26.4730   24.0273   -2.0480 H         1 UNK         0.0809 
     93 H93        24.7780   23.5415   -2.0752 H         1 UNK         0.0809 
     94 H94        25.6218   23.8599    0.3171 H         1 UNK         0.2990 
     95 H95        24.9088   25.2231    3.5340 H         1 UNK         0.0690 
     96 H96        23.9945   22.9333    3.8759 H         1 UNK         0.0788 
     97 H97        23.8130   22.7237    2.1345 H         1 UNK         0.0788 
     98 H98        22.8624   23.9342    2.9813 H         1 UNK         0.0788 
     99 H99        26.2809   22.8979    2.4008 H         1 UNK         0.2993 
    100 H100       29.5178   24.3626    2.5756 H         1 UNK         0.0949 
    101 H101       29.0587   23.6761    4.9602 H         1 UNK         0.0767 
    102 H102       28.2868   22.2060    4.3845 H         1 UNK         0.0767 
    103 H103       30.0067   22.4801    4.0930 H         1 UNK         0.0767 
    104 H104       28.7298   21.7039    2.0189 H         1 UNK         0.3013 
    105 H105       29.0464   29.9487   -1.0739 H         1 UNK         0.3121 
    106 H106       26.9605   31.6885   -0.0581 H         1 UNK         0.0774 
    107 H107       28.5003   33.4893   -0.8476 H         1 UNK         0.0815 
    108 H108       29.7662   32.3069   -1.1438 H         1 UNK         0.0815 
    109 H109       28.2771   32.2698   -2.0898 H         1 UNK         0.0815 
    110 H110       29.8819   30.3254    1.2410 H         1 UNK         0.2987 
    111 H111       31.0108   30.4322    3.1405 H         1 UNK         0.0949 
    112 H112       29.7469   30.7282    5.2372 H         1 UNK         0.0806 
    113 H113       28.7941   29.7933    4.0977 H         1 UNK         0.0806 
    114 H114       28.4176   31.4940    4.3790 H         1 UNK         0.0806 
    115 H115       31.5567   32.5221    1.4774 H         1 UNK         0.3010 
    116 H116       31.5815   35.0966    2.7765 H         1 UNK         0.0829 
    117 H117       33.0539   34.0380    0.3038 H         1 UNK         0.0813 
    118 H118       31.5056   34.8819    0.3189 H         1 UNK         0.0813 
    119 H119       32.9713   35.7241    0.7941 H         1 UNK         0.0813 
    120 H120       32.4753   34.4793    4.8090 H         1 UNK         0.3038 
    121 H121       33.9973   34.4694    6.4178 H         1 UNK         0.0769 
    122 H122       36.1862   35.5566    6.1186 H         1 UNK         0.0811 
    123 H123       34.9576   36.4855    5.2772 H         1 UNK         0.0811 
    124 H124       36.0571   35.4468    4.3706 H         1 UNK         0.0811 
    125 H125       33.4090   32.0361    5.1538 H         1 UNK         0.3204 
    126 H126       35.5586   30.3623    6.0856 H         1 UNK         0.0748 
    127 H127       35.7866   29.1188    3.8973 H         1 UNK         0.0771 
    128 H128       34.7696   30.3149    3.1031 H         1 UNK         0.0771 
    129 H129       36.3518   30.7718    3.7286 H         1 UNK         0.0771 
    130 H130       34.8054   28.1193    6.1653 H         1 UNK         0.2980 
    131 H131       33.4157   26.5202    6.6060 H         1 UNK         0.0545 
    132 H132       31.6879   28.7919    9.1918 H         1 UNK         0.3459 
    133 H133       33.1316   29.1281    8.2695 H         1 UNK         0.3459 
    134 H134       31.0883   27.4972    4.9340 H         1 UNK         0.0616 
    135 H135       32.5926   27.2514    4.1127 H         1 UNK         0.0616 
    136 H136       33.9339   25.2764    3.9390 H         1 UNK         0.0634 
    137 H137       33.4492   23.6412    4.2888 H         1 UNK         0.0634 
@<TRIPOS>BOND
     1    1    2 1    
     2    1   72 1    
     3    1   73 1    
     4    1   74 1    
     5    2    3 2    
     6    2    4 am   BACKBONE|DICT|INTERRES
     7    4    5 1    
     8    4   75 1    
     9    5    6 1    
    10    5   35 1    
    11    5   76 1    
    12    6    7 1    
    13    6   77 1    
    14    6   78 1    
    15    7    8 1    
    16    8    9 1    
    17    8   79 1    
    18    8   80 1    
    19    9   10 ar   
    20    9   14 ar   
    21   10   11 ar   
    22   10   81 1    
    23   11   12 ar   
    24   11   71 1    
    25   12   13 ar   
    26   12   82 1    
    27   13   14 ar   
    28   13   15 1    
    29   14   83 1    
    30   15   16 1    
    31   15   84 1    
    32   15   85 1    
    33   16   17 1    
    34   17   18 1    
    35   17   86 1    
    36   17   87 1    
    37   18   19 1    
    38   18   37 1    
    39   18   88 1    
    40   19   20 am   BACKBONE|DICT|INTERRES
    41   19   89 1    
    42   20   21 2    
    43   20   22 1    
    44   22   23 1    
    45   22   24 1    
    46   22   90 1    
    47   23   91 1    
    48   23   92 1    
    49   23   93 1    
    50   24   25 am   BACKBONE|DICT|INTERRES
    51   24   94 1    
    52   25   26 2    
    53   25   27 1    
    54   27   28 1    
    55   27   29 1    
    56   27   95 1    
    57   28   96 1    
    58   28   97 1    
    59   28   98 1    
    60   29   30 am   BACKBONE|DICT|INTERRES
    61   29   99 1    
    62   30   31 2    
    63   30   32 1    
    64   32   33 1    
    65   32   34 1    
    66   32  100 1    
    67   33  101 1    
    68   33  102 1    
    69   33  103 1    
    70   34   35 am   BACKBONE|DICT|INTERRES
    71   34  104 1    
    72   35   36 2    
    73   37   38 2    
    74   37   39 am   BACKBONE|DICT|INTERRES
    75   39   40 1    
    76   39  105 1    
    77   40   41 1    
    78   40   42 1    
    79   40  106 1    
    80   41  107 1    
    81   41  108 1    
    82   41  109 1    
    83   42   43 2    
    84   42   44 am   BACKBONE|DICT|INTERRES
    85   44   45 1    
    86   44  110 1    
    87   45   46 1    
    88   45   47 1    
    89   45  111 1    
    90   46  112 1    
    91   46  113 1    
    92   46  114 1    
    93   47   48 2    
    94   47   49 am   BACKBONE|DICT|INTERRES
    95   49   50 1    
    96   49  115 1    
    97   50   51 1    
    98   50   52 1    
    99   50  116 1    
   100   51  117 1    
   101   51  118 1    
   102   51  119 1    
   103   52   53 2    
   104   52   54 am   BACKBONE|DICT|INTERRES
   105   54   55 1    
   106   54  120 1    
   107   55   56 1    
   108   55   57 1    
   109   55  121 1    
   110   56  122 1    
   111   56  123 1    
   112   56  124 1    
   113   57   58 2    
   114   57   59 am   BACKBONE|DICT|INTERRES
   115   59   60 1    
   116   59  125 1    
   117   60   61 1    
   118   60   62 1    
   119   60  126 1    
   120   61  127 1    
   121   61  128 1    
   122   61  129 1    
   123   62   63 2    
   124   62   64 am   BACKBONE|DICT|INTERRES
   125   64   65 1    
   126   64  130 1    
   127   65   66 1    
   128   65   69 1    
   129   65  131 1    
   130   66   67 am   BACKBONE|DICT|INTERRES
   131   66   68 2    
   132   67  132 1    
   133   67  133 1    
   134   69   70 1    
   135   69  134 1    
   136   69  135 1    
   137   70   71 1    
   138   71  136 1    
   139   71  137 1    
@<TRIPOS>SUBSTRUCTURE
     1 UNK         1 GROUP             0       ****    0 ROOT    
