@<TRIPOS>MOLECULE
3R136
137   139    1
SMALL
USER_CHARGES


@<TRIPOS>ATOM
      1 CA         22.9876   26.4913    2.9354 C.3       0 UNK        -0.1979 
      2 C          23.7956   25.2059    2.8347 C.2       0 UNK         0.4864 
      3 O          23.3862   24.1776    3.3761 O.2       0 UNK        -0.5359 
      4 N          24.9418   25.2611    2.1491 N.am      1 UNK        -0.4318 
      5 CA         25.8116   24.1222    1.8626 C.3       1 UNK         0.0824 
      6 C6         27.2607   24.5978    1.5850 C.3       12 UNK        -0.0944 
      7 S7         28.5070   23.3048    1.9027 S.3       12 UNK        -0.2672 
      8 C8         29.5989   24.1281    3.1222 C.3       12 UNK         0.0333 
      9 C9         30.6220   25.1184    2.5516 C.ar      12 UNK        -0.0807 
     10 C10        31.6981   25.5022    3.3590 C.ar      12 UNK        -0.0894 
     11 C11        32.6790   26.3778    2.8824 C.ar      12 UNK        -0.0804 
     12 C12        32.5594   26.9091    1.5951 C.ar      12 UNK        -0.0824 
     13 C13        31.4890   26.5447    0.7722 C.ar      12 UNK        -0.0762 
     14 C14        30.5353   25.6429    1.2551 C.ar      12 UNK        -0.0782 
     15 C15        31.4051   27.0774   -0.6556 C.3       12 UNK         0.0230 
     16 S16        30.0774   28.3084   -0.8829 S.3       12 UNK        -0.2608 
     17 C17        28.7112   27.2528   -1.4786 C.3       12 UNK        -0.0989 
     18 CA         27.2686   27.7991   -1.2741 C.3       5 UNK         0.0716 
     19 N          26.3093   26.9020   -1.9082 N.am      5 UNK        -0.4135 
     20 C          26.0866   26.7327   -3.2118 C.2       4 UNK         0.5031 
     21 O          26.5702   27.4388   -4.0986 O.2       4 UNK        -0.5229 
     22 CA         25.2310   25.5001   -3.5504 C.3       4 UNK         0.0329 
     23 CB         24.8114   25.4241   -5.0346 C.3       4 UNK        -0.2001 
     24 N          25.9194   24.2777   -3.1054 N.am      4 UNK        -0.4303 
     25 C          27.0766   23.7742   -3.5732 C.2       3 UNK         0.5044 
     26 O          27.6718   24.2248   -4.5524 O.2       3 UNK        -0.5152 
     27 CA         27.7180   22.5861   -2.8210 C.3       3 UNK         0.0319 
     28 CB         29.1175   22.9678   -2.3043 C.3       3 UNK        -0.2001 
     29 N          26.9368   22.0903   -1.6874 N.am      3 UNK        -0.4354 
     30 C          25.8025   21.3802   -1.7588 C.2       2 UNK         0.4964 
     31 O          25.3120   20.9790   -2.8139 O.2       2 UNK        -0.5047 
     32 CA         25.0729   21.1011   -0.4286 C.3       2 UNK         0.0288 
     33 CB         25.3174   19.6523    0.0242 C.3       2 UNK        -0.2113 
     34 N          25.4405   22.0138    0.6639 N.am      2 UNK        -0.4145 
     35 C          25.2541   23.3419    0.6569 C.2       1 UNK         0.5006 
     36 O          24.7449   23.9552   -0.2874 O.2       1 UNK        -0.5103 
     37 C          26.8177   27.9162    0.1998 C.2       5 UNK         0.5055 
     38 O          25.7744   27.3637    0.5644 O.2       5 UNK        -0.5220 
     39 N          27.5873   28.6095    1.0381 N.am      6 UNK        -0.4450 
     40 CA         27.3727   28.7086    2.4776 C.3       6 UNK         0.0367 
     41 CB         26.3951   29.8542    2.7936 C.3       6 UNK        -0.1929 
     42 C          28.7289   28.9343    3.1478 C.2       6 UNK         0.5070 
     43 O          29.5961   29.5818    2.5562 O.2       6 UNK        -0.5237 
     44 N          28.8793   28.4154    4.3715 N.am      7 UNK        -0.4739 
     45 CA         30.0688   28.6196    5.1973 C.3       7 UNK         0.0276 
     46 CB         30.0980   27.5704    6.3199 C.3       7 UNK        -0.1927 
     47 C          30.1039   30.0456    5.7731 C.2       7 UNK         0.5013 
     48 O          29.0499   30.6074    6.0843 O.2       7 UNK        -0.5193 
     49 N          31.3118   30.5934    5.9222 N.am      8 UNK        -0.4253 
     50 CA         31.5881   31.9423    6.4108 C.3       8 UNK         0.0242 
     51 CB         31.3060   32.9684    5.2926 C.3       8 UNK        -0.2000 
     52 C          33.0509   31.9997    6.8687 C.2       8 UNK         0.4948 
     53 O          33.7711   31.0084    6.7314 O.2       8 UNK        -0.5275 
     54 N          33.4925   33.1693    7.3546 N.am      9 UNK        -0.4246 
     55 CA         34.8769   33.4402    7.7757 C.3       9 UNK         0.0261 
     56 CB         34.9775   34.8813    8.3011 C.3       9 UNK        -0.1959 
     57 C          35.9363   33.1911    6.6820 C.2       9 UNK         0.5033 
     58 O          37.0768   32.8577    7.0079 O.2       9 UNK        -0.5390 
     59 N          35.5264   33.2970    5.4091 N.am      10 UNK        -0.4215 
     60 CA         36.3043   32.9390    4.2198 C.3       10 UNK         0.0240 
     61 CB         35.4953   33.3094    2.9656 C.3       10 UNK        -0.1982 
     62 C          36.7360   31.4590    4.1609 C.2       10 UNK         0.4970 
     63 O          37.7052   31.1559    3.4637 O.2       10 UNK        -0.4916 
     64 N          36.0416   30.5725    4.8898 N.am      11 UNK        -0.4279 
     65 CA         36.4321   29.1673    5.0809 C.3       11 UNK         0.1003 
     66 C          37.6847   28.9758    5.9885 C.2       11 UNK         0.5709 
     67 N          38.1521   29.9847    6.7175 N.am      11 UNK        -0.7358 
     68 O          38.2510   27.8858    6.0244 O.2       11 UNK        -0.4999 
     69 C69        35.2516   28.3008    5.5946 C.3       12 UNK        -0.0954 
     70 S70        33.7893   28.3410    4.5024 S.3       12 UNK        -0.2268 
     71 C71        33.8987   26.6986    3.7347 C.3       12 UNK         0.0203 
     72 H72        23.4755   27.3178    2.4178 H         1 UNK         0.0888 
     73 H73        22.0013   26.3503    2.4945 H         1 UNK         0.0888 
     74 H74        22.8590   26.7740    3.9798 H         1 UNK         0.0888 
     75 H75        25.1817   26.1175    1.6491 H         1 UNK         0.3017 
     76 H76        25.8121   23.4714    2.7402 H         1 UNK         0.0873 
     77 H77        27.3736   24.9544    0.5599 H         1 UNK         0.0745 
     78 H78        27.4958   25.4548    2.2176 H         1 UNK         0.0745 
     79 H79        28.9902   24.6346    3.8726 H         1 UNK         0.0705 
     80 H80        30.1378   23.3410    3.6517 H         1 UNK         0.0705 
     81 H81        31.7883   25.0941    4.3566 H         1 UNK         0.1334 
     82 H82        33.3177   27.5870    1.2273 H         1 UNK         0.1417 
     83 H83        29.7331   25.3377    0.6080 H         1 UNK         0.1562 
     84 H84        32.3497   27.5468   -0.9347 H         1 UNK         0.0748 
     85 H85        31.2714   26.2481   -1.3520 H         1 UNK         0.0748 
     86 H86        28.7892   26.2570   -1.0497 H         1 UNK         0.0940 
     87 H87        28.8918   27.1102   -2.5455 H         1 UNK         0.0940 
     88 H88        27.1801   28.7876   -1.7288 H         1 UNK         0.0703 
     89 H89        25.7856   26.3493   -1.2386 H         1 UNK         0.3081 
     90 H90        24.3175   25.5736   -2.9577 H         1 UNK         0.0719 
     91 H91        25.6686   25.4090   -5.7079 H         1 UNK         0.0809 
     92 H92        24.2146   24.5338   -5.2319 H         1 UNK         0.0809 
     93 H93        24.2059   26.2890   -5.3076 H         1 UNK         0.0809 
     94 H94        25.5286   23.8521   -2.2722 H         1 UNK         0.2990 
     95 H95        27.8279   21.7728   -3.5413 H         1 UNK         0.0690 
     96 H96        29.6120   22.1184   -1.8324 H         1 UNK         0.0788 
     97 H97        29.0718   23.7763   -1.5739 H         1 UNK         0.0788 
     98 H98        29.7625   23.3006   -3.1188 H         1 UNK         0.0788 
     99 H99        27.2678   22.3514   -0.7700 H         1 UNK         0.2993 
    100 H100       24.0048   21.2278   -0.6184 H         1 UNK         0.0949 
    101 H101       25.0269   18.9449   -0.7541 H         1 UNK         0.0767 
    102 H102       26.3689   19.4726    0.2521 H         1 UNK         0.0767 
    103 H103       24.7336   19.4096    0.9125 H         1 UNK         0.0767 
    104 H104       25.8940   21.5947    1.4639 H         1 UNK         0.3013 
    105 H105       28.4731   28.9876    0.7156 H         1 UNK         0.3121 
    106 H106       26.9582   27.7691    2.8497 H         1 UNK         0.0774 
    107 H107       26.2460   29.9553    3.8694 H         1 UNK         0.0815 
    108 H108       26.7664   30.8108    2.4240 H         1 UNK         0.0815 
    109 H109       25.4172   29.6775    2.3456 H         1 UNK         0.0815 
    110 H110       28.1005   27.9452    4.8091 H         1 UNK         0.2987 
    111 H111       30.9433   28.4730    4.5614 H         1 UNK         0.0949 
    112 H112       29.2453   27.6733    6.9922 H         1 UNK         0.0806 
    113 H113       30.0899   26.5578    5.9162 H         1 UNK         0.0806 
    114 H114       31.0029   27.6703    6.9209 H         1 UNK         0.0806 
    115 H115       32.1468   30.0515    5.7249 H         1 UNK         0.3010 
    116 H116       30.9541   32.1486    7.2756 H         1 UNK         0.0829 
    117 H117       30.2707   32.9147    4.9553 H         1 UNK         0.0813 
    118 H118       31.4724   33.9910    5.6321 H         1 UNK         0.0813 
    119 H119       31.9445   32.8009    4.4241 H         1 UNK         0.0813 
    120 H120       32.8392   33.9351    7.4409 H         1 UNK         0.3038 
    121 H121       35.1032   32.7594    8.5990 H         1 UNK         0.0769 
    122 H122       34.7285   35.6115    7.5300 H         1 UNK         0.0811 
    123 H123       35.9898   35.1019    8.6435 H         1 UNK         0.0811 
    124 H124       34.3102   35.0439    9.1477 H         1 UNK         0.0811 
    125 H125       34.5721   33.5840    5.2507 H         1 UNK         0.3204 
    126 H126       37.2159   33.5399    4.2325 H         1 UNK         0.0748 
    127 H127       36.0583   33.0874    2.0577 H         1 UNK         0.0771 
    128 H128       34.5581   32.7535    2.9114 H         1 UNK         0.0771 
    129 H129       35.2585   34.3734    2.9440 H         1 UNK         0.0771 
    130 H130       35.2538   30.8821    5.4503 H         1 UNK         0.2980 
    131 H131       36.7139   28.7760    4.1016 H         1 UNK         0.0545 
    132 H132       37.7051   30.8940    6.7049 H         1 UNK         0.3459 
    133 H133       38.9658   29.8367    7.2926 H         1 UNK         0.3459 
    134 H134       34.9405   28.6362    6.5851 H         1 UNK         0.0616 
    135 H135       35.5681   27.2641    5.7225 H         1 UNK         0.0616 
    136 H136       34.0163   25.9444    4.5144 H         1 UNK         0.0634 
    137 H137       34.7998   26.6505    3.1214 H         1 UNK         0.0634 
@<TRIPOS>BOND
     1    1    2 1    
     2    1   72 1    
     3    1   73 1    
     4    1   74 1    
     5    2    3 2    
     6    2    4 am   BACKBONE|DICT|INTERRES
     7    4    5 1    
     8    4   75 1    
     9    5    6 1    
    10    5   35 1    
    11    5   76 1    
    12    6    7 1    
    13    6   77 1    
    14    6   78 1    
    15    7    8 1    
    16    8    9 1    
    17    8   79 1    
    18    8   80 1    
    19    9   10 ar   
    20    9   14 ar   
    21   10   11 ar   
    22   10   81 1    
    23   11   12 ar   
    24   11   71 1    
    25   12   13 ar   
    26   12   82 1    
    27   13   14 ar   
    28   13   15 1    
    29   14   83 1    
    30   15   16 1    
    31   15   84 1    
    32   15   85 1    
    33   16   17 1    
    34   17   18 1    
    35   17   86 1    
    36   17   87 1    
    37   18   19 1    
    38   18   37 1    
    39   18   88 1    
    40   19   20 am   BACKBONE|DICT|INTERRES
    41   19   89 1    
    42   20   21 2    
    43   20   22 1    
    44   22   23 1    
    45   22   24 1    
    46   22   90 1    
    47   23   91 1    
    48   23   92 1    
    49   23   93 1    
    50   24   25 am   BACKBONE|DICT|INTERRES
    51   24   94 1    
    52   25   26 2    
    53   25   27 1    
    54   27   28 1    
    55   27   29 1    
    56   27   95 1    
    57   28   96 1    
    58   28   97 1    
    59   28   98 1    
    60   29   30 am   BACKBONE|DICT|INTERRES
    61   29   99 1    
    62   30   31 2    
    63   30   32 1    
    64   32   33 1    
    65   32   34 1    
    66   32  100 1    
    67   33  101 1    
    68   33  102 1    
    69   33  103 1    
    70   34   35 am   BACKBONE|DICT|INTERRES
    71   34  104 1    
    72   35   36 2    
    73   37   38 2    
    74   37   39 am   BACKBONE|DICT|INTERRES
    75   39   40 1    
    76   39  105 1    
    77   40   41 1    
    78   40   42 1    
    79   40  106 1    
    80   41  107 1    
    81   41  108 1    
    82   41  109 1    
    83   42   43 2    
    84   42   44 am   BACKBONE|DICT|INTERRES
    85   44   45 1    
    86   44  110 1    
    87   45   46 1    
    88   45   47 1    
    89   45  111 1    
    90   46  112 1    
    91   46  113 1    
    92   46  114 1    
    93   47   48 2    
    94   47   49 am   BACKBONE|DICT|INTERRES
    95   49   50 1    
    96   49  115 1    
    97   50   51 1    
    98   50   52 1    
    99   50  116 1    
   100   51  117 1    
   101   51  118 1    
   102   51  119 1    
   103   52   53 2    
   104   52   54 am   BACKBONE|DICT|INTERRES
   105   54   55 1    
   106   54  120 1    
   107   55   56 1    
   108   55   57 1    
   109   55  121 1    
   110   56  122 1    
   111   56  123 1    
   112   56  124 1    
   113   57   58 2    
   114   57   59 am   BACKBONE|DICT|INTERRES
   115   59   60 1    
   116   59  125 1    
   117   60   61 1    
   118   60   62 1    
   119   60  126 1    
   120   61  127 1    
   121   61  128 1    
   122   61  129 1    
   123   62   63 2    
   124   62   64 am   BACKBONE|DICT|INTERRES
   125   64   65 1    
   126   64  130 1    
   127   65   66 1    
   128   65   69 1    
   129   65  131 1    
   130   66   67 am   BACKBONE|DICT|INTERRES
   131   66   68 2    
   132   67  132 1    
   133   67  133 1    
   134   69   70 1    
   135   69  134 1    
   136   69  135 1    
   137   70   71 1    
   138   71  136 1    
   139   71  137 1    
@<TRIPOS>SUBSTRUCTURE
     1 UNK         1 GROUP             0       ****    0 ROOT    
