@<TRIPOS>MOLECULE
3R136
137   139    1
SMALL
USER_CHARGES


@<TRIPOS>ATOM
      1 CA         31.1620   22.3391   -4.8559 C.3       0 UNK        -0.1979 
      2 C          30.6552   22.2909   -3.4217 C.2       0 UNK         0.4864 
      3 O          30.7930   21.2583   -2.7637 O.2       0 UNK        -0.5359 
      4 N          30.0798   23.4025   -2.9394 N.am      1 UNK        -0.4318 
      5 CA         29.4723   23.5659   -1.6112 C.3       1 UNK         0.0824 
      6 C6         30.4887   23.3292   -0.4524 C.3       12 UNK        -0.0944 
      7 S7         30.1894   24.4066    0.9876 S.3       12 UNK        -0.2672 
      8 C8         30.0966   23.2029    2.3478 C.3       12 UNK         0.0333 
      9 C9         29.9385   23.9319    3.6707 C.ar      12 UNK        -0.0807 
     10 C10        31.0687   24.3040    4.4014 C.ar      12 UNK        -0.0894 
     11 C11        30.9395   25.0241    5.5918 C.ar      12 UNK        -0.0804 
     12 C12        29.6672   25.3862    6.0432 C.ar      12 UNK        -0.0824 
     13 C13        28.5256   25.0130    5.3243 C.ar      12 UNK        -0.0762 
     14 C14        28.6686   24.2642    4.1504 C.ar      12 UNK        -0.0782 
     15 C15        27.1444   25.4237    5.8278 C.3       12 UNK         0.0230 
     16 S16        26.0787   26.1601    4.5390 S.3       12 UNK        -0.2608 
     17 C17        27.1326   27.4911    3.8676 C.3       12 UNK        -0.0989 
     18 CA         27.5435   27.1988    2.4020 C.3       5 UNK         0.0716 
     19 N          26.3879   27.2166    1.5026 N.am      5 UNK        -0.4135 
     20 C          26.3448   26.5908    0.3237 C.2       4 UNK         0.5031 
     21 O          27.2607   25.8959   -0.1261 O.2       4 UNK        -0.5229 
     22 CA         25.0608   26.7519   -0.4964 C.3       4 UNK         0.0329 
     23 CB         25.1629   27.9345   -1.4739 C.3       4 UNK        -0.2001 
     24 N          24.8910   25.5087   -1.2320 N.am      4 UNK        -0.4303 
     25 C          23.7383   24.9072   -1.5382 C.2       3 UNK         0.5044 
     26 O          22.6291   25.4239   -1.3995 O.2       3 UNK        -0.5152 
     27 CA         23.8512   23.4599   -2.0533 C.3       3 UNK         0.0319 
     28 CB         23.9379   23.4353   -3.5875 C.3       3 UNK        -0.2001 
     29 N          25.0093   22.7550   -1.4904 N.am      3 UNK        -0.4354 
     30 C          25.1531   22.4117   -0.2033 C.2       2 UNK         0.4964 
     31 O          24.2705   22.5588    0.6424 O.2       2 UNK        -0.5047 
     32 CA         26.5121   21.8341    0.2313 C.3       2 UNK         0.0288 
     33 CB         26.6269   20.3399   -0.1288 C.3       2 UNK        -0.2113 
     34 N          27.6841   22.5947   -0.2320 N.am      2 UNK        -0.4145 
     35 C          28.1619   22.7516   -1.4746 C.2       1 UNK         0.5006 
     36 O          27.5941   22.3165   -2.4815 O.2       1 UNK        -0.5103 
     37 C          28.5977   28.2115    1.9279 C.2       5 UNK         0.5055 
     38 O          28.2374   29.2880    1.4454 O.2       5 UNK        -0.5220 
     39 N          29.8795   27.8954    2.1535 N.am      6 UNK        -0.4450 
     40 CA         31.0312   28.7660    1.8823 C.3       6 UNK         0.0367 
     41 CB         32.2862   27.8900    1.7109 C.3       6 UNK        -0.1929 
     42 C          31.2259   29.8557    2.9599 C.2       6 UNK         0.5070 
     43 O          32.3630   30.1648    3.3253 O.2       6 UNK        -0.5237 
     44 N          30.1179   30.4052    3.4731 N.am      7 UNK        -0.4739 
     45 CA         30.0692   31.4241    4.5200 C.3       7 UNK         0.0276 
     46 CB         28.6063   31.6645    4.9230 C.3       7 UNK        -0.1927 
     47 C          30.7326   32.7301    4.0615 C.2       7 UNK         0.5013 
     48 O          30.4738   33.1791    2.9428 O.2       7 UNK        -0.5193 
     49 N          31.6056   33.2847    4.9119 N.am      8 UNK        -0.4253 
     50 CA         32.4617   34.4642    4.7123 C.3       8 UNK         0.0242 
     51 CB         31.6404   35.7282    4.3890 C.3       8 UNK        -0.2000 
     52 C          33.5978   34.2549    3.6928 C.2       8 UNK         0.4948 
     53 O          34.6766   34.8174    3.8837 O.2       8 UNK        -0.5275 
     54 N          33.3617   33.4403    2.6552 N.am      9 UNK        -0.4246 
     55 CA         34.3546   33.0017    1.6733 C.3       9 UNK         0.0261 
     56 CB         33.6491   32.2610    0.5254 C.3       9 UNK        -0.1959 
     57 C          35.4491   32.1195    2.2978 C.2       9 UNK         0.5033 
     58 O          36.6198   32.2741    1.9455 O.2       9 UNK        -0.5390 
     59 N          35.0539   31.2331    3.2201 N.am      10 UNK        -0.4215 
     60 CA         35.9540   30.3741    3.9882 C.3       10 UNK         0.0240 
     61 CB         36.2273   29.0685    3.2188 C.3       10 UNK        -0.1982 
     62 C          35.3963   30.0799    5.3863 C.2       10 UNK         0.4970 
     63 O          36.1435   30.1625    6.3620 O.2       10 UNK        -0.4916 
     64 N          34.1105   29.7225    5.4575 N.am      11 UNK        -0.4279 
     65 CA         33.4173   29.3002    6.6810 C.3       11 UNK         0.1003 
     66 C          32.8339   30.4997    7.4733 C.2       11 UNK         0.5709 
     67 N          32.5442   30.3110    8.7529 N.am      11 UNK        -0.7358 
     68 O          32.6141   31.5879    6.9434 O.2       11 UNK        -0.4999 
     69 C69        32.3334   28.2377    6.3560 C.3       12 UNK        -0.0954 
     70 S70        33.0866   26.7583    5.5948 S.3       12 UNK        -0.2268 
     71 C71        32.1830   25.3937    6.3843 C.3       12 UNK         0.0203 
     72 H72        30.6538   21.5862   -5.4579 H         1 UNK         0.0888 
     73 H73        30.9928   23.3121   -5.3169 H         1 UNK         0.0888 
     74 H74        32.2317   22.1328   -4.8832 H         1 UNK         0.0888 
     75 H75        29.9798   24.2003   -3.5513 H         1 UNK         0.3017 
     76 H76        29.1661   24.6129   -1.5840 H         1 UNK         0.0873 
     77 H77        31.4995   23.5619   -0.7916 H         1 UNK         0.0745 
     78 H78        30.5205   22.2789   -0.1553 H         1 UNK         0.0745 
     79 H79        31.0029   22.5950    2.3582 H         1 UNK         0.0705 
     80 H80        29.2635   22.5167    2.1915 H         1 UNK         0.0705 
     81 H81        32.0540   24.0452    4.0374 H         1 UNK         0.1334 
     82 H82        29.5676   25.9545    6.9581 H         1 UNK         0.1417 
     83 H83        27.7902   23.9739    3.5899 H         1 UNK         0.1562 
     84 H84        27.2307   26.1381    6.6481 H         1 UNK         0.0748 
     85 H85        26.6443   24.5451    6.2372 H         1 UNK         0.0748 
     86 H86        28.0108   27.6099    4.5056 H         1 UNK         0.0940 
     87 H87        26.5875   28.4346    3.9368 H         1 UNK         0.0940 
     88 H88        27.9961   26.2072    2.3561 H         1 UNK         0.0703 
     89 H89        25.6091   27.7915    1.7876 H         1 UNK         0.3081 
     90 H90        24.2171   26.8984    0.1818 H         1 UNK         0.0719 
     91 H91        25.3038   28.8737   -0.9374 H         1 UNK         0.0809 
     92 H92        26.0044   27.8190   -2.1583 H         1 UNK         0.0809 
     93 H93        24.2564   28.0334   -2.0713 H         1 UNK         0.0809 
     94 H94        25.7535   24.9905   -1.3439 H         1 UNK         0.2990 
     95 H95        22.9478   22.9268   -1.7495 H         1 UNK         0.0690 
     96 H96        24.8370   23.9359   -3.9494 H         1 UNK         0.0788 
     97 H97        23.0800   23.9392   -4.0349 H         1 UNK         0.0788 
     98 H98        23.9473   22.4134   -3.9673 H         1 UNK         0.0788 
     99 H99        25.8027   22.5853   -2.1054 H         1 UNK         0.2993 
    100 H100       26.5371   21.9039    1.3203 H         1 UNK         0.0949 
    101 H101       26.6011   20.1738   -1.2062 H         1 UNK         0.0767 
    102 H102       27.5534   19.9112    0.2536 H         1 UNK         0.0767 
    103 H103       25.8033   19.7715    0.3053 H         1 UNK         0.0767 
    104 H104       28.1889   23.0876    0.4933 H         1 UNK         0.3013 
    105 H105       30.0906   27.0016    2.5765 H         1 UNK         0.3121 
    106 H106       30.8587   29.2866    0.9380 H         1 UNK         0.0774 
    107 H107       33.1515   28.4921    1.4304 H         1 UNK         0.0815 
    108 H108       32.5386   27.3646    2.6325 H         1 UNK         0.0815 
    109 H109       32.1463   27.1444    0.9280 H         1 UNK         0.0815 
    110 H110       29.2390   30.1606    3.0331 H         1 UNK         0.2987 
    111 H111       30.6035   31.0310    5.3853 H         1 UNK         0.0949 
    112 H112       28.5387   32.4047    5.7216 H         1 UNK         0.0806 
    113 H113       28.0131   32.0332    4.0850 H         1 UNK         0.0806 
    114 H114       28.1392   30.7500    5.2892 H         1 UNK         0.0806 
    115 H115       31.8147   32.7648    5.7636 H         1 UNK         0.3010 
    116 H116       32.9455   34.6293    5.6765 H         1 UNK         0.0829 
    117 H117       30.8645   35.8991    5.1352 H         1 UNK         0.0813 
    118 H118       32.2801   36.6116    4.3781 H         1 UNK         0.0813 
    119 H119       31.1605   35.6683    3.4119 H         1 UNK         0.0813 
    120 H120       32.4186   33.0774    2.5584 H         1 UNK         0.3038 
    121 H121       34.8360   33.8923    1.2638 H         1 UNK         0.0769 
    122 H122       32.9151   32.8993    0.0332 H         1 UNK         0.0811 
    123 H123       34.3665   31.9472   -0.2341 H         1 UNK         0.0811 
    124 H124       33.1337   31.3660    0.8757 H         1 UNK         0.0811 
    125 H125       34.0594   31.1394    3.4078 H         1 UNK         0.3204 
    126 H126       36.9035   30.8949    4.1318 H         1 UNK         0.0748 
    127 H127       36.7142   29.2656    2.2636 H         1 UNK         0.0771 
    128 H128       36.8843   28.4093    3.7877 H         1 UNK         0.0771 
    129 H129       35.3063   28.5194    3.0178 H         1 UNK         0.0771 
    130 H130       33.5372   29.7227    4.6178 H         1 UNK         0.2980 
    131 H131       34.1511   28.8269    7.3369 H         1 UNK         0.0545 
    132 H132       32.1569   31.0758    9.2827 H         1 UNK         0.3459 
    133 H133       32.7137   29.4253    9.2032 H         1 UNK         0.3459 
    134 H134       31.8021   27.9443    7.2625 H         1 UNK         0.0616 
    135 H135       31.5804   28.6370    5.6755 H         1 UNK         0.0616 
    136 H136       31.9371   25.6427    7.4175 H         1 UNK         0.0634 
    137 H137       32.8429   24.5264    6.4336 H         1 UNK         0.0634 
@<TRIPOS>BOND
     1    1    2 1    
     2    1   72 1    
     3    1   73 1    
     4    1   74 1    
     5    2    3 2    
     6    2    4 am   BACKBONE|DICT|INTERRES
     7    4    5 1    
     8    4   75 1    
     9    5    6 1    
    10    5   35 1    
    11    5   76 1    
    12    6    7 1    
    13    6   77 1    
    14    6   78 1    
    15    7    8 1    
    16    8    9 1    
    17    8   79 1    
    18    8   80 1    
    19    9   10 ar   
    20    9   14 ar   
    21   10   11 ar   
    22   10   81 1    
    23   11   12 ar   
    24   11   71 1    
    25   12   13 ar   
    26   12   82 1    
    27   13   14 ar   
    28   13   15 1    
    29   14   83 1    
    30   15   16 1    
    31   15   84 1    
    32   15   85 1    
    33   16   17 1    
    34   17   18 1    
    35   17   86 1    
    36   17   87 1    
    37   18   19 1    
    38   18   37 1    
    39   18   88 1    
    40   19   20 am   BACKBONE|DICT|INTERRES
    41   19   89 1    
    42   20   21 2    
    43   20   22 1    
    44   22   23 1    
    45   22   24 1    
    46   22   90 1    
    47   23   91 1    
    48   23   92 1    
    49   23   93 1    
    50   24   25 am   BACKBONE|DICT|INTERRES
    51   24   94 1    
    52   25   26 2    
    53   25   27 1    
    54   27   28 1    
    55   27   29 1    
    56   27   95 1    
    57   28   96 1    
    58   28   97 1    
    59   28   98 1    
    60   29   30 am   BACKBONE|DICT|INTERRES
    61   29   99 1    
    62   30   31 2    
    63   30   32 1    
    64   32   33 1    
    65   32   34 1    
    66   32  100 1    
    67   33  101 1    
    68   33  102 1    
    69   33  103 1    
    70   34   35 am   BACKBONE|DICT|INTERRES
    71   34  104 1    
    72   35   36 2    
    73   37   38 2    
    74   37   39 am   BACKBONE|DICT|INTERRES
    75   39   40 1    
    76   39  105 1    
    77   40   41 1    
    78   40   42 1    
    79   40  106 1    
    80   41  107 1    
    81   41  108 1    
    82   41  109 1    
    83   42   43 2    
    84   42   44 am   BACKBONE|DICT|INTERRES
    85   44   45 1    
    86   44  110 1    
    87   45   46 1    
    88   45   47 1    
    89   45  111 1    
    90   46  112 1    
    91   46  113 1    
    92   46  114 1    
    93   47   48 2    
    94   47   49 am   BACKBONE|DICT|INTERRES
    95   49   50 1    
    96   49  115 1    
    97   50   51 1    
    98   50   52 1    
    99   50  116 1    
   100   51  117 1    
   101   51  118 1    
   102   51  119 1    
   103   52   53 2    
   104   52   54 am   BACKBONE|DICT|INTERRES
   105   54   55 1    
   106   54  120 1    
   107   55   56 1    
   108   55   57 1    
   109   55  121 1    
   110   56  122 1    
   111   56  123 1    
   112   56  124 1    
   113   57   58 2    
   114   57   59 am   BACKBONE|DICT|INTERRES
   115   59   60 1    
   116   59  125 1    
   117   60   61 1    
   118   60   62 1    
   119   60  126 1    
   120   61  127 1    
   121   61  128 1    
   122   61  129 1    
   123   62   63 2    
   124   62   64 am   BACKBONE|DICT|INTERRES
   125   64   65 1    
   126   64  130 1    
   127   65   66 1    
   128   65   69 1    
   129   65  131 1    
   130   66   67 am   BACKBONE|DICT|INTERRES
   131   66   68 2    
   132   67  132 1    
   133   67  133 1    
   134   69   70 1    
   135   69  134 1    
   136   69  135 1    
   137   70   71 1    
   138   71  136 1    
   139   71  137 1    
@<TRIPOS>SUBSTRUCTURE
     1 UNK         1 GROUP             0       ****    0 ROOT    
