@<TRIPOS>MOLECULE
3R136
137   139    1
SMALL
USER_CHARGES


@<TRIPOS>ATOM
      1 CA         27.3114   21.6424    4.1905 C.3       0 UNK        -0.1979 
      2 C          27.4239   21.2593    2.7223 C.2       0 UNK         0.4864 
      3 O          26.4732   20.7181    2.1568 O.2       0 UNK        -0.5359 
      4 N          28.5809   21.5378    2.1050 N.am      1 UNK        -0.4318 
      5 CA         28.8958   21.2429    0.6979 C.3       1 UNK         0.0824 
      6 C6         30.3893   21.4934    0.3552 C.3       12 UNK        -0.0944 
      7 S7         31.5454   20.6732    1.5080 S.3       12 UNK        -0.2672 
      8 C8         33.0232   21.7466    1.3821 C.3       12 UNK         0.0333 
      9 C9         32.9851   23.0612    2.1707 C.ar      12 UNK        -0.0807 
     10 C10        34.1794   23.7734    2.3303 C.ar      12 UNK        -0.0894 
     11 C11        34.2056   24.9841    3.0288 C.ar      12 UNK        -0.0804 
     12 C12        33.0221   25.4869    3.5724 C.ar      12 UNK        -0.0824 
     13 C13        31.8123   24.8065    3.4079 C.ar      12 UNK        -0.0762 
     14 C14        31.8092   23.5914    2.7187 C.ar      12 UNK        -0.0782 
     15 C15        30.4961   25.3420    3.9723 C.3       12 UNK         0.0230 
     16 S16        30.3667   27.1616    4.0692 S.3       12 UNK        -0.2608 
     17 C17        30.6058   27.6839    2.3336 C.3       12 UNK        -0.0989 
     18 CA         29.3877   27.4078    1.4084 C.3       5 UNK         0.0716 
     19 N          28.1090   27.8630    1.9673 N.am      5 UNK        -0.4135 
     20 C          27.7389   29.1318    2.1994 C.2       4 UNK         0.5031 
     21 O          28.4750   30.1020    2.0082 O.2       4 UNK        -0.5229 
     22 CA         26.2848   29.3560    2.6697 C.3       4 UNK         0.0329 
     23 CB         25.7697   30.7676    2.3203 C.3       4 UNK        -0.2001 
     24 N          25.3462   28.3320    2.1836 N.am      4 UNK        -0.4303 
     25 C          25.1387   27.9743    0.9074 C.2       3 UNK         0.5044 
     26 O          25.6863   28.5046   -0.0622 O.2       3 UNK        -0.5152 
     27 CA         24.2303   26.7557    0.6806 C.3       3 UNK         0.0319 
     28 CB         22.9543   27.1595   -0.0752 C.3       3 UNK        -0.2001 
     29 N          24.9315   25.7078   -0.0679 N.am      3 UNK        -0.4354 
     30 C          26.0557   25.0971    0.3320 C.2       2 UNK         0.4964 
     31 O          26.6183   25.3167    1.4107 O.2       2 UNK        -0.5047 
     32 CA         26.6760   24.1007   -0.6526 C.3       2 UNK         0.0288 
     33 CB         27.4665   24.8344   -1.7516 C.3       2 UNK        -0.2113 
     34 N          27.5613   23.2159    0.0945 N.am      2 UNK        -0.4145 
     35 C          27.9982   22.0126   -0.2965 C.2       1 UNK         0.5006 
     36 O          27.7262   21.5054   -1.3863 O.2       1 UNK        -0.5103 
     37 C          29.6256   27.9219   -0.0344 C.2       5 UNK         0.5055 
     38 O          30.7786   28.0148   -0.4579 O.2       5 UNK        -0.5220 
     39 N          28.5419   28.2659   -0.7545 N.am      6 UNK        -0.4450 
     40 CA         28.5157   28.9348   -2.0626 C.3       6 UNK         0.0367 
     41 CB         29.1313   28.0473   -3.1664 C.3       6 UNK        -0.1929 
     42 C          29.1180   30.3569   -2.0341 C.2       6 UNK         0.5070 
     43 O          29.5808   30.8443   -3.0671 O.2       6 UNK        -0.5237 
     44 N          29.0977   31.0039   -0.8627 N.am      7 UNK        -0.4739 
     45 CA         29.6235   32.3432   -0.6224 C.3       7 UNK         0.0276 
     46 CB         31.1258   32.2502   -0.2717 C.3       7 UNK        -0.1927 
     47 C          28.7499   33.0060    0.4534 C.2       7 UNK         0.5013 
     48 O          27.5396   33.1231    0.2540 O.2       7 UNK        -0.5193 
     49 N          29.3616   33.4075    1.5716 N.am      8 UNK        -0.4253 
     50 CA         28.7008   33.9228    2.7684 C.3       8 UNK         0.0242 
     51 CB         28.7665   35.4626    2.7759 C.3       8 UNK        -0.2000 
     52 C          29.3638   33.2738    3.9928 C.2       8 UNK         0.4948 
     53 O          29.8181   33.9822    4.8932 O.2       8 UNK        -0.5275 
     54 N          29.4344   31.9338    3.9607 N.am      9 UNK        -0.4246 
     55 CA         30.1902   31.0251    4.8304 C.3       9 UNK         0.0261 
     56 CB         29.8992   31.2594    6.3272 C.3       9 UNK        -0.1959 
     57 C          31.6994   31.0428    4.5234 C.2       9 UNK         0.5033 
     58 O          32.2189   32.0010    3.9455 O.2       9 UNK        -0.5390 
     59 N          32.3757   29.9585    4.9109 N.am      10 UNK        -0.4215 
     60 CA         33.8025   29.7045    4.7297 C.3       10 UNK         0.0240 
     61 CB         34.1050   29.4073    3.2458 C.3       10 UNK        -0.1982 
     62 C          34.1913   28.5286    5.6393 C.2       10 UNK         0.4970 
     63 O          33.3065   27.9198    6.2474 O.2       10 UNK        -0.4916 
     64 N          35.4953   28.2247    5.7139 N.am      11 UNK        -0.4279 
     65 CA         36.0781   27.1338    6.5242 C.3       11 UNK         0.1003 
     66 C          35.9066   27.3086    8.0683 C.2       11 UNK         0.5709 
     67 N          35.6269   28.5061    8.5704 N.am      11 UNK        -0.7358 
     68 O          36.0704   26.3605    8.8331 O.2       11 UNK        -0.4999 
     69 C69        35.6685   25.7154    6.0117 C.3       12 UNK        -0.0954 
     70 S70        36.5690   25.2102    4.5058 S.3       12 UNK        -0.2268 
     71 C71        35.4987   25.7779    3.1489 C.3       12 UNK         0.0203 
     72 H72        27.0983   20.7599    4.7932 H         1 UNK         0.0888 
     73 H73        28.2281   22.0963    4.5668 H         1 UNK         0.0888 
     74 H74        26.4989   22.3551    4.3299 H         1 UNK         0.0888 
     75 H75        29.3402   21.9191    2.6468 H         1 UNK         0.3017 
     76 H76        28.6927   20.1804    0.5466 H         1 UNK         0.0873 
     77 H77        30.6039   22.5634    0.3319 H         1 UNK         0.0745 
     78 H78        30.6096   21.1254   -0.6490 H         1 UNK         0.0745 
     79 H79        33.2109   21.9687    0.3306 H         1 UNK         0.0705 
     80 H80        33.8775   21.1620    1.7269 H         1 UNK         0.0705 
     81 H81        35.0953   23.3877    1.9029 H         1 UNK         0.1334 
     82 H82        33.0405   26.4210    4.1112 H         1 UNK         0.1417 
     83 H83        30.8750   23.0679    2.6119 H         1 UNK         0.1562 
     84 H84        30.3643   24.9366    4.9762 H         1 UNK         0.0748 
     85 H85        29.6549   24.9762    3.3815 H         1 UNK         0.0748 
     86 H86        31.4989   27.1969    1.9397 H         1 UNK         0.0940 
     87 H87        30.8347   28.7512    2.3420 H         1 UNK         0.0940 
     88 H88        29.2931   26.3256    1.3108 H         1 UNK         0.0703 
     89 H89        27.4287   27.1258    2.1175 H         1 UNK         0.3081 
     90 H90        26.3037   29.2681    3.7569 H         1 UNK         0.0719 
     91 H91        24.7431   30.9117    2.6562 H         1 UNK         0.0809 
     92 H92        25.8015   30.9550    1.2461 H         1 UNK         0.0809 
     93 H93        26.3759   31.5359    2.8003 H         1 UNK         0.0809 
     94 H94        24.8665   27.8091    2.9042 H         1 UNK         0.2990 
     95 H95        23.9404   26.3376    1.6470 H         1 UNK         0.0690 
     96 H96        22.2819   26.3109   -0.2030 H         1 UNK         0.0788 
     97 H97        23.1806   27.5615   -1.0639 H         1 UNK         0.0788 
     98 H98        22.4047   27.9279    0.4703 H         1 UNK         0.0788 
     99 H99        24.5623   25.4915   -0.9826 H         1 UNK         0.2993 
    100 H100       25.8742   23.5093   -1.1004 H         1 UNK         0.0949 
    101 H101       28.3137   25.3808   -1.3365 H         1 UNK         0.0767 
    102 H102       27.8535   24.1381   -2.4958 H         1 UNK         0.0767 
    103 H103       26.8380   25.5527   -2.2797 H         1 UNK         0.0767 
    104 H104       27.7776   23.5463    1.0266 H         1 UNK         0.3013 
    105 H105       27.6275   28.1830   -0.3180 H         1 UNK         0.3121 
    106 H106       27.4600   29.0678   -2.3037 H         1 UNK         0.0774 
    107 H107       28.9760   28.4873   -4.1521 H         1 UNK         0.0815 
    108 H108       30.2063   27.9223   -3.0359 H         1 UNK         0.0815 
    109 H109       28.6771   27.0580   -3.1846 H         1 UNK         0.0815 
    110 H110       28.6811   30.5547   -0.0534 H         1 UNK         0.2987 
    111 H111       29.5122   32.9478   -1.5252 H         1 UNK         0.0949 
    112 H112       31.6891   31.8015   -1.0903 H         1 UNK         0.0806 
    113 H113       31.5574   33.2366   -0.0972 H         1 UNK         0.0806 
    114 H114       31.3011   31.6393    0.6156 H         1 UNK         0.0806 
    115 H115       30.3553   33.2415    1.6623 H         1 UNK         0.3010 
    116 H116       27.6512   33.6222    2.7803 H         1 UNK         0.0829 
    117 H117       28.2704   35.8833    1.9012 H         1 UNK         0.0813 
    118 H118       28.2702   35.8707    3.6573 H         1 UNK         0.0813 
    119 H119       29.7963   35.8217    2.7826 H         1 UNK         0.0813 
    120 H120       29.0407   31.4681    3.1445 H         1 UNK         0.3038 
    121 H121       29.8238   30.0300    4.5771 H         1 UNK         0.0769 
    122 H122       30.3426   32.1869    6.6901 H         1 UNK         0.0811 
    123 H123       28.8276   31.2987    6.5225 H         1 UNK         0.0811 
    124 H124       30.3086   30.4515    6.9344 H         1 UNK         0.0811 
    125 H125       31.9016   29.2133    5.4108 H         1 UNK         0.3204 
    126 H126       34.3608   30.5856    5.0520 H         1 UNK         0.0748 
    127 H127       35.1679   29.2274    3.0838 H         1 UNK         0.0771 
    128 H128       33.5604   28.5319    2.8912 H         1 UNK         0.0771 
    129 H129       33.8297   30.2455    2.6057 H         1 UNK         0.0771 
    130 H130       36.1597   28.7867    5.2018 H         1 UNK         0.2980 
    131 H131       37.1562   27.2236    6.3871 H         1 UNK         0.0545 
    132 H132       35.5325   28.6111    9.5682 H         1 UNK         0.3459 
    133 H133       35.5080   29.3017    7.9651 H         1 UNK         0.3459 
    134 H134       35.9090   24.9496    6.7502 H         1 UNK         0.0616 
    135 H135       34.5930   25.6349    5.8611 H         1 UNK         0.0616 
    136 H136       36.0567   25.6979    2.2149 H         1 UNK         0.0634 
    137 H137       35.2886   26.8372    3.2776 H         1 UNK         0.0634 
@<TRIPOS>BOND
     1    1    2 1    
     2    1   72 1    
     3    1   73 1    
     4    1   74 1    
     5    2    3 2    
     6    2    4 am   BACKBONE|DICT|INTERRES
     7    4    5 1    
     8    4   75 1    
     9    5    6 1    
    10    5   35 1    
    11    5   76 1    
    12    6    7 1    
    13    6   77 1    
    14    6   78 1    
    15    7    8 1    
    16    8    9 1    
    17    8   79 1    
    18    8   80 1    
    19    9   10 ar   
    20    9   14 ar   
    21   10   11 ar   
    22   10   81 1    
    23   11   12 ar   
    24   11   71 1    
    25   12   13 ar   
    26   12   82 1    
    27   13   14 ar   
    28   13   15 1    
    29   14   83 1    
    30   15   16 1    
    31   15   84 1    
    32   15   85 1    
    33   16   17 1    
    34   17   18 1    
    35   17   86 1    
    36   17   87 1    
    37   18   19 1    
    38   18   37 1    
    39   18   88 1    
    40   19   20 am   BACKBONE|DICT|INTERRES
    41   19   89 1    
    42   20   21 2    
    43   20   22 1    
    44   22   23 1    
    45   22   24 1    
    46   22   90 1    
    47   23   91 1    
    48   23   92 1    
    49   23   93 1    
    50   24   25 am   BACKBONE|DICT|INTERRES
    51   24   94 1    
    52   25   26 2    
    53   25   27 1    
    54   27   28 1    
    55   27   29 1    
    56   27   95 1    
    57   28   96 1    
    58   28   97 1    
    59   28   98 1    
    60   29   30 am   BACKBONE|DICT|INTERRES
    61   29   99 1    
    62   30   31 2    
    63   30   32 1    
    64   32   33 1    
    65   32   34 1    
    66   32  100 1    
    67   33  101 1    
    68   33  102 1    
    69   33  103 1    
    70   34   35 am   BACKBONE|DICT|INTERRES
    71   34  104 1    
    72   35   36 2    
    73   37   38 2    
    74   37   39 am   BACKBONE|DICT|INTERRES
    75   39   40 1    
    76   39  105 1    
    77   40   41 1    
    78   40   42 1    
    79   40  106 1    
    80   41  107 1    
    81   41  108 1    
    82   41  109 1    
    83   42   43 2    
    84   42   44 am   BACKBONE|DICT|INTERRES
    85   44   45 1    
    86   44  110 1    
    87   45   46 1    
    88   45   47 1    
    89   45  111 1    
    90   46  112 1    
    91   46  113 1    
    92   46  114 1    
    93   47   48 2    
    94   47   49 am   BACKBONE|DICT|INTERRES
    95   49   50 1    
    96   49  115 1    
    97   50   51 1    
    98   50   52 1    
    99   50  116 1    
   100   51  117 1    
   101   51  118 1    
   102   51  119 1    
   103   52   53 2    
   104   52   54 am   BACKBONE|DICT|INTERRES
   105   54   55 1    
   106   54  120 1    
   107   55   56 1    
   108   55   57 1    
   109   55  121 1    
   110   56  122 1    
   111   56  123 1    
   112   56  124 1    
   113   57   58 2    
   114   57   59 am   BACKBONE|DICT|INTERRES
   115   59   60 1    
   116   59  125 1    
   117   60   61 1    
   118   60   62 1    
   119   60  126 1    
   120   61  127 1    
   121   61  128 1    
   122   61  129 1    
   123   62   63 2    
   124   62   64 am   BACKBONE|DICT|INTERRES
   125   64   65 1    
   126   64  130 1    
   127   65   66 1    
   128   65   69 1    
   129   65  131 1    
   130   66   67 am   BACKBONE|DICT|INTERRES
   131   66   68 2    
   132   67  132 1    
   133   67  133 1    
   134   69   70 1    
   135   69  134 1    
   136   69  135 1    
   137   70   71 1    
   138   71  136 1    
   139   71  137 1    
@<TRIPOS>SUBSTRUCTURE
     1 UNK         1 GROUP             0       ****    0 ROOT    
