@<TRIPOS>MOLECULE
3R136
137   139    1
SMALL
USER_CHARGES


@<TRIPOS>ATOM
      1 CA         26.4633   23.6420    7.2746 C.3       0 UNK        -0.1979 
      2 C          26.6284   23.6063    5.7622 C.2       0 UNK         0.4864 
      3 O          25.8537   22.9356    5.0780 O.2       0 UNK        -0.5359 
      4 N          27.6395   24.3130    5.2407 N.am      1 UNK        -0.4318 
      5 CA         27.9375   24.4363    3.8094 C.3       1 UNK         0.0824 
      6 C6         29.3316   25.0631    3.5591 C.3       12 UNK        -0.0944 
      7 S7         30.6626   24.1640    4.4261 S.3       12 UNK        -0.2672 
      8 C8         31.1423   22.9175    3.1898 C.3       12 UNK         0.0333 
      9 C9         32.0535   23.5084    2.1261 C.ar      12 UNK        -0.0807 
     10 C10        33.4206   23.6508    2.3810 C.ar      12 UNK        -0.0894 
     11 C11        34.2727   24.1964    1.4164 C.ar      12 UNK        -0.0804 
     12 C12        33.7428   24.5942    0.1838 C.ar      12 UNK        -0.0824 
     13 C13        32.3733   24.4784   -0.0730 C.ar      12 UNK        -0.0762 
     14 C14        31.5357   23.9165    0.8939 C.ar      12 UNK        -0.0782 
     15 C15        31.7992   24.9929   -1.3834 C.3       12 UNK         0.0230 
     16 S16        31.6428   26.8062   -1.3527 S.3       12 UNK        -0.2608 
     17 C17        30.2639   27.0518   -0.1793 C.3       12 UNK        -0.0989 
     18 CA         29.2513   28.0994   -0.7119 C.3       5 UNK         0.0716 
     19 N          28.5946   27.6100   -1.9244 N.am      5 UNK        -0.4135 
     20 C          28.6016   28.2171   -3.1168 C.2       4 UNK         0.5031 
     21 O          29.1448   29.3018   -3.3332 O.2       4 UNK        -0.5229 
     22 CA         27.9108   27.4886   -4.2868 C.3       4 UNK         0.0329 
     23 CB         28.9624   26.8741   -5.2259 C.3       4 UNK        -0.2001 
     24 N          26.9870   26.4349   -3.8590 N.am      4 UNK        -0.4303 
     25 C          25.7809   26.6534   -3.3205 C.2       3 UNK         0.5044 
     26 O          25.2851   27.7727   -3.1836 O.2       3 UNK        -0.5152 
     27 CA         24.9889   25.4252   -2.8375 C.3       3 UNK         0.0319 
     28 CB         25.5125   24.0705   -3.3707 C.3       3 UNK        -0.2001 
     29 N          24.8882   25.4163   -1.3746 N.am      3 UNK        -0.4354 
     30 C          25.8926   25.3276   -0.4894 C.2       2 UNK         0.4964 
     31 O          27.0789   25.1832   -0.8027 O.2       2 UNK        -0.5047 
     32 CA         25.5024   25.4287    0.9952 C.3       2 UNK         0.0288 
     33 CB         24.1611   24.7356    1.3234 C.3       2 UNK        -0.2113 
     34 N          26.5622   24.8603    1.8260 N.am      2 UNK        -0.4145 
     35 C          26.8372   25.2350    3.0803 C.2       1 UNK         0.5006 
     36 O          26.2731   26.1687    3.6587 O.2       1 UNK        -0.5103 
     37 C          28.1829   28.4656    0.3383 C.2       5 UNK         0.5055 
     38 O          26.9833   28.3351    0.0849 O.2       5 UNK        -0.5220 
     39 N          28.6345   28.9311    1.5060 N.am      6 UNK        -0.4450 
     40 CA         27.8136   29.2484    2.6670 C.3       6 UNK         0.0367 
     41 CB         27.3322   30.7067    2.5903 C.3       6 UNK        -0.1929 
     42 C          28.6721   29.0061    3.9102 C.2       6 UNK         0.5070 
     43 O          29.8681   29.3093    3.8796 O.2       6 UNK        -0.5237 
     44 N          28.0553   28.4540    4.9628 N.am      7 UNK        -0.4739 
     45 CA         28.6889   28.0824    6.2318 C.3       7 UNK         0.0276 
     46 CB         27.6201   27.5079    7.1765 C.3       7 UNK        -0.1927 
     47 C          29.4121   29.2657    6.8945 C.2       7 UNK         0.5013 
     48 O          28.7870   30.3048    7.1171 O.2       7 UNK        -0.5193 
     49 N          30.7160   29.0955    7.1564 N.am      8 UNK        -0.4253 
     50 CA         31.6784   30.0537    7.7268 C.3       8 UNK         0.0242 
     51 CB         31.2699   30.4781    9.1514 C.3       8 UNK        -0.2000 
     52 C          31.9810   31.2871    6.8509 C.2       8 UNK         0.4948 
     53 O          33.1123   31.7727    6.8790 O.2       8 UNK        -0.5275 
     54 N          30.9876   31.7754    6.0988 N.am      9 UNK        -0.4246 
     55 CA         31.0858   32.9125    5.1844 C.3       9 UNK         0.0261 
     56 CB         29.6724   33.3410    4.7608 C.3       9 UNK        -0.1959 
     57 C          31.9630   32.6346    3.9517 C.2       9 UNK         0.5033 
     58 O          32.6127   33.5626    3.4663 O.2       9 UNK        -0.5390 
     59 N          31.9740   31.3843    3.4728 N.am      10 UNK        -0.4215 
     60 CA         32.8234   30.9141    2.3804 C.3       10 UNK         0.0240 
     61 CB         31.9304   30.4026    1.2377 C.3       10 UNK        -0.1982 
     62 C          33.7378   29.7890    2.8826 C.2       10 UNK         0.4970 
     63 O          33.4179   29.1257    3.8725 O.2       10 UNK        -0.4916 
     64 N          34.8362   29.5756    2.1487 N.am      11 UNK        -0.4279 
     65 CA         35.8493   28.5361    2.3831 C.3       11 UNK         0.1003 
     66 C          36.6592   28.7258    3.7023 C.2       11 UNK         0.5709 
     67 N          37.3772   27.7071    4.1563 N.am      11 UNK        -0.7358 
     68 O          36.6907   29.8052    4.2914 O.2       11 UNK        -0.4999 
     69 C69        35.2677   27.1029    2.1834 C.3       12 UNK        -0.0954 
     70 S70        36.4239   26.0003    1.3040 S.3       12 UNK        -0.2268 
     71 C71        35.7595   24.3537    1.7231 C.3       12 UNK         0.0203 
     72 H72        26.4661   22.6292    7.6768 H         1 UNK         0.0888 
     73 H73        27.2640   24.1999    7.7600 H         1 UNK         0.0888 
     74 H74        25.5153   24.1108    7.5366 H         1 UNK         0.0888 
     75 H75        28.2549   24.8268    5.8528 H         1 UNK         0.3017 
     76 H76        27.9417   23.4247    3.3974 H         1 UNK         0.0873 
     77 H77        29.5541   25.1045    2.4929 H         1 UNK         0.0745 
     78 H78        29.3549   26.0968    3.9039 H         1 UNK         0.0745 
     79 H79        30.2513   22.4767    2.7403 H         1 UNK         0.0705 
     80 H80        31.6594   22.1022    3.6980 H         1 UNK         0.0705 
     81 H81        33.8174   23.3419    3.3386 H         1 UNK         0.1334 
     82 H82        34.3910   25.0284   -0.5651 H         1 UNK         0.1417 
     83 H83        30.4784   23.8131    0.6931 H         1 UNK         0.1562 
     84 H84        30.8285   24.5416   -1.5953 H         1 UNK         0.0748 
     85 H85        32.4561   24.7077   -2.2065 H         1 UNK         0.0748 
     86 H86        30.7030   27.3497    0.7735 H         1 UNK         0.0940 
     87 H87        29.7563   26.1036    0.0053 H         1 UNK         0.0940 
     88 H88        29.7949   29.0224   -0.9251 H         1 UNK         0.0703 
     89 H89        28.0526   26.7616   -1.8051 H         1 UNK         0.3081 
     90 H90        27.3458   28.2355   -4.8487 H         1 UNK         0.0719 
     91 H91        29.5648   26.1193   -4.7184 H         1 UNK         0.0809 
     92 H92        28.4970   26.4074   -6.0943 H         1 UNK         0.0809 
     93 H93        29.6463   27.6380   -5.5988 H         1 UNK         0.0809 
     94 H94        27.3180   25.4827   -3.9205 H         1 UNK         0.2990 
     95 H95        23.9736   25.5520   -3.2165 H         1 UNK         0.0690 
     96 H96        24.8574   23.2550   -3.0639 H         1 UNK         0.0788 
     97 H97        26.5146   23.8335   -3.0124 H         1 UNK         0.0788 
     98 H98        25.5392   24.0619   -4.4613 H         1 UNK         0.0788 
     99 H99        23.9578   25.5639   -1.0095 H         1 UNK         0.2993 
    100 H100       25.4106   26.4937    1.2189 H         1 UNK         0.0949 
    101 H101       24.1665   23.6873    1.0216 H         1 UNK         0.0767 
    102 H102       23.9495   24.7695    2.3926 H         1 UNK         0.0767 
    103 H103       23.3219   25.2221    0.8256 H         1 UNK         0.0767 
    104 H104       27.1176   24.1457    1.3748 H         1 UNK         0.3013 
    105 H105       29.6275   29.0035    1.6846 H         1 UNK         0.3121 
    106 H106       26.9484   28.5829    2.6992 H         1 UNK         0.0774 
    107 H107       26.8020   30.9950    3.4988 H         1 UNK         0.0815 
    108 H108       28.1655   31.3970    2.4586 H         1 UNK         0.0815 
    109 H109       26.6474   30.8505    1.7544 H         1 UNK         0.0815 
    110 H110       27.0748   28.2236    4.8730 H         1 UNK         0.2987 
    111 H111       29.4164   27.2977    6.0156 H         1 UNK         0.0949 
    112 H112       26.8864   28.2643    7.4591 H         1 UNK         0.0806 
    113 H113       27.0786   26.6819    6.7174 H         1 UNK         0.0806 
    114 H114       28.0715   27.1335    8.0963 H         1 UNK         0.0806 
    115 H115       31.1286   28.2159    6.8771 H         1 UNK         0.3010 
    116 H116       32.6180   29.5044    7.8080 H         1 UNK         0.0829 
    117 H117       31.1294   29.6125    9.7988 H         1 UNK         0.0813 
    118 H118       32.0410   31.1011    9.6067 H         1 UNK         0.0813 
    119 H119       30.3450   31.0555    9.1570 H         1 UNK         0.0813 
    120 H120       30.0777   31.3326    6.1963 H         1 UNK         0.3038 
    121 H121       31.5432   33.7404    5.7303 H         1 UNK         0.0769 
    122 H122       29.7078   34.1775    4.0614 H         1 UNK         0.0811 
    123 H123       29.0820   33.6611    5.6195 H         1 UNK         0.0811 
    124 H124       29.1373   32.5266    4.2735 H         1 UNK         0.0811 
    125 H125       31.4232   30.6659    3.9356 H         1 UNK         0.3204 
    126 H126       33.4500   31.7249    2.0029 H         1 UNK         0.0748 
    127 H127       31.2132   31.1600    0.9205 H         1 UNK         0.0771 
    128 H128       32.5242   30.1293    0.3644 H         1 UNK         0.0771 
    129 H129       31.3769   29.5165    1.5417 H         1 UNK         0.0771 
    130 H130       35.0220   30.1874    1.3675 H         1 UNK         0.2980 
    131 H131       36.5783   28.7200    1.5932 H         1 UNK         0.0545 
    132 H132       37.9228   27.8216    4.9959 H         1 UNK         0.3459 
    133 H133       37.3842   26.8285    3.6613 H         1 UNK         0.3459 
    134 H134       34.9636   26.6569    3.1323 H         1 UNK         0.0616 
    135 H135       34.3614   27.1419    1.5764 H         1 UNK         0.0616 
    136 H136       36.3156   23.5988    1.1661 H         1 UNK         0.0634 
    137 H137       35.9563   24.1659    2.7798 H         1 UNK         0.0634 
@<TRIPOS>BOND
     1    1    2 1    
     2    1   72 1    
     3    1   73 1    
     4    1   74 1    
     5    2    3 2    
     6    2    4 am   BACKBONE|DICT|INTERRES
     7    4    5 1    
     8    4   75 1    
     9    5    6 1    
    10    5   35 1    
    11    5   76 1    
    12    6    7 1    
    13    6   77 1    
    14    6   78 1    
    15    7    8 1    
    16    8    9 1    
    17    8   79 1    
    18    8   80 1    
    19    9   10 ar   
    20    9   14 ar   
    21   10   11 ar   
    22   10   81 1    
    23   11   12 ar   
    24   11   71 1    
    25   12   13 ar   
    26   12   82 1    
    27   13   14 ar   
    28   13   15 1    
    29   14   83 1    
    30   15   16 1    
    31   15   84 1    
    32   15   85 1    
    33   16   17 1    
    34   17   18 1    
    35   17   86 1    
    36   17   87 1    
    37   18   19 1    
    38   18   37 1    
    39   18   88 1    
    40   19   20 am   BACKBONE|DICT|INTERRES
    41   19   89 1    
    42   20   21 2    
    43   20   22 1    
    44   22   23 1    
    45   22   24 1    
    46   22   90 1    
    47   23   91 1    
    48   23   92 1    
    49   23   93 1    
    50   24   25 am   BACKBONE|DICT|INTERRES
    51   24   94 1    
    52   25   26 2    
    53   25   27 1    
    54   27   28 1    
    55   27   29 1    
    56   27   95 1    
    57   28   96 1    
    58   28   97 1    
    59   28   98 1    
    60   29   30 am   BACKBONE|DICT|INTERRES
    61   29   99 1    
    62   30   31 2    
    63   30   32 1    
    64   32   33 1    
    65   32   34 1    
    66   32  100 1    
    67   33  101 1    
    68   33  102 1    
    69   33  103 1    
    70   34   35 am   BACKBONE|DICT|INTERRES
    71   34  104 1    
    72   35   36 2    
    73   37   38 2    
    74   37   39 am   BACKBONE|DICT|INTERRES
    75   39   40 1    
    76   39  105 1    
    77   40   41 1    
    78   40   42 1    
    79   40  106 1    
    80   41  107 1    
    81   41  108 1    
    82   41  109 1    
    83   42   43 2    
    84   42   44 am   BACKBONE|DICT|INTERRES
    85   44   45 1    
    86   44  110 1    
    87   45   46 1    
    88   45   47 1    
    89   45  111 1    
    90   46  112 1    
    91   46  113 1    
    92   46  114 1    
    93   47   48 2    
    94   47   49 am   BACKBONE|DICT|INTERRES
    95   49   50 1    
    96   49  115 1    
    97   50   51 1    
    98   50   52 1    
    99   50  116 1    
   100   51  117 1    
   101   51  118 1    
   102   51  119 1    
   103   52   53 2    
   104   52   54 am   BACKBONE|DICT|INTERRES
   105   54   55 1    
   106   54  120 1    
   107   55   56 1    
   108   55   57 1    
   109   55  121 1    
   110   56  122 1    
   111   56  123 1    
   112   56  124 1    
   113   57   58 2    
   114   57   59 am   BACKBONE|DICT|INTERRES
   115   59   60 1    
   116   59  125 1    
   117   60   61 1    
   118   60   62 1    
   119   60  126 1    
   120   61  127 1    
   121   61  128 1    
   122   61  129 1    
   123   62   63 2    
   124   62   64 am   BACKBONE|DICT|INTERRES
   125   64   65 1    
   126   64  130 1    
   127   65   66 1    
   128   65   69 1    
   129   65  131 1    
   130   66   67 am   BACKBONE|DICT|INTERRES
   131   66   68 2    
   132   67  132 1    
   133   67  133 1    
   134   69   70 1    
   135   69  134 1    
   136   69  135 1    
   137   70   71 1    
   138   71  136 1    
   139   71  137 1    
@<TRIPOS>SUBSTRUCTURE
     1 UNK         1 GROUP             0       ****    0 ROOT    
