@<TRIPOS>MOLECULE
3R136
137   139    1
SMALL
USER_CHARGES


@<TRIPOS>ATOM
      1 CA         33.3066   22.5857   -1.5132 C.3       0 UNK        -0.1979 
      2 C          32.0139   23.2246   -1.0299 C.2       0 UNK         0.4864 
      3 O          31.6780   24.3253   -1.4680 O.2       0 UNK        -0.5359 
      4 N          31.2767   22.5305   -0.1493 N.am      1 UNK        -0.4318 
      5 CA         30.0562   22.9951    0.5327 C.3       1 UNK         0.0824 
      6 C6         29.5012   21.9346    1.5154 C.3       12 UNK        -0.0944 
      7 S7         30.7529   21.3319    2.6961 S.3       12 UNK        -0.2672 
      8 C8         29.7833   21.2095    4.2315 C.3       12 UNK         0.0333 
      9 C9         29.6545   22.5453    4.9514 C.ar      12 UNK        -0.0807 
     10 C10        30.7924   23.1593    5.4816 C.ar      12 UNK        -0.0894 
     11 C11        30.6860   24.3416    6.2178 C.ar      12 UNK        -0.0804 
     12 C12        29.4258   24.9085    6.4307 C.ar      12 UNK        -0.0824 
     13 C13        28.2789   24.3103    5.8984 C.ar      12 UNK        -0.0762 
     14 C14        28.4007   23.1332    5.1507 C.ar      12 UNK        -0.0782 
     15 C15        26.9020   24.8965    6.1820 C.3       12 UNK         0.0230 
     16 S16        26.3233   25.9942    4.8498 S.3       12 UNK        -0.2608 
     17 C17        27.3055   27.5083    5.1345 C.3       12 UNK        -0.0989 
     18 CA         28.4008   27.7062    4.0538 C.3       5 UNK         0.0716 
     19 N          27.7987   27.7705    2.7164 N.am      5 UNK        -0.4135 
     20 C          28.4280   27.6454    1.5420 C.2       4 UNK         0.5031 
     21 O          29.6487   27.5236    1.4197 O.2       4 UNK        -0.5229 
     22 CA         27.5066   27.6081    0.3096 C.3       4 UNK         0.0329 
     23 CB         26.7356   28.9284    0.0985 C.3       4 UNK        -0.2001 
     24 N          28.2256   27.1213   -0.8756 N.am      4 UNK        -0.4303 
     25 C          28.6395   27.7480   -1.9894 C.2       3 UNK         0.5044 
     26 O          28.3838   28.9148   -2.2855 O.2       3 UNK        -0.5152 
     27 CA         29.4897   26.9214   -2.9748 C.3       3 UNK         0.0319 
     28 CB         30.9781   27.2621   -2.7976 C.3       3 UNK        -0.2001 
     29 N          29.3028   25.4743   -2.8323 N.am      3 UNK        -0.4354 
     30 C          28.1762   24.8221   -3.1649 C.2       2 UNK         0.4964 
     31 O          27.2308   25.3545   -3.7474 O.2       2 UNK        -0.5047 
     32 CA         28.0554   23.3383   -2.7624 C.3       2 UNK         0.0288 
     33 CB         28.3214   22.4292   -3.9735 C.3       2 UNK        -0.2113 
     34 N          28.9386   22.9386   -1.6637 N.am      2 UNK        -0.4145 
     35 C          28.9317   23.4492   -0.4223 C.2       1 UNK         0.5006 
     36 O          28.1044   24.2724   -0.0301 O.2       1 UNK        -0.5103 
     37 C          29.2997   28.9238    4.3734 C.2       5 UNK         0.5055 
     38 O          29.4116   29.8471    3.5640 O.2       5 UNK        -0.5220 
     39 N          29.9279   28.8969    5.5599 N.am      6 UNK        -0.4450 
     40 CA         30.9283   29.8426    6.0764 C.3       6 UNK         0.0367 
     41 CB         31.1424   29.5933    7.5805 C.3       6 UNK        -0.1929 
     42 C          30.6278   31.3291    5.8301 C.2       6 UNK         0.5070 
     43 O          31.4442   32.0242    5.2259 O.2       6 UNK        -0.5237 
     44 N          29.4494   31.7770    6.2788 N.am      7 UNK        -0.4739 
     45 CA         29.0021   33.1687    6.1731 C.3       7 UNK         0.0276 
     46 CB         27.8117   33.3801    7.1235 C.3       7 UNK        -0.1927 
     47 C          28.6311   33.6046    4.7436 C.2       7 UNK         0.5013 
     48 O          28.5528   34.8079    4.4915 O.2       7 UNK        -0.5193 
     49 N          28.3861   32.6381    3.8502 N.am      8 UNK        -0.4253 
     50 CA         27.9654   32.8709    2.4719 C.3       8 UNK         0.0242 
     51 CB         26.8758   31.8533    2.1011 C.3       8 UNK        -0.2000 
     52 C          29.1449   32.7934    1.4935 C.2       8 UNK         0.4948 
     53 O          29.2764   33.6831    0.6515 O.2       8 UNK        -0.5275 
     54 N          29.9669   31.7398    1.5991 N.am      9 UNK        -0.4246 
     55 CA         31.0293   31.4346    0.6372 C.3       9 UNK         0.0261 
     56 CB         30.4297   30.7220   -0.5891 C.3       9 UNK        -0.1959 
     57 C          32.1889   30.6369    1.2547 C.2       9 UNK         0.5033 
     58 O          32.8094   29.8374    0.5503 O.2       9 UNK        -0.5390 
     59 N          32.4835   30.8621    2.5452 N.am      10 UNK        -0.4215 
     60 CA         33.6438   30.3233    3.2749 C.3       10 UNK         0.0240 
     61 CB         34.9431   30.9860    2.7669 C.3       10 UNK        -0.1982 
     62 C          33.7384   28.7809    3.2918 C.2       10 UNK         0.4970 
     63 O          34.8459   28.2456    3.3646 O.2       10 UNK        -0.4916 
     64 N          32.5835   28.1032    3.2241 N.am      11 UNK        -0.4279 
     65 CA         32.4404   26.6374    3.1444 C.3       11 UNK         0.1003 
     66 C          32.8953   26.0322    1.7811 C.2       11 UNK         0.5709 
     67 N          33.0417   26.8144    0.7170 N.am      11 UNK        -0.7358 
     68 O          33.1092   24.8272    1.6793 O.2       11 UNK        -0.4999 
     69 C69        33.0426   25.8782    4.3663 C.3       12 UNK        -0.0954 
     70 S70        32.4241   26.4968    5.9666 S.3       12 UNK        -0.2268 
     71 C71        31.9279   24.9746    6.8274 C.3       12 UNK         0.0203 
     72 H72        34.1557   23.2049   -1.2250 H         1 UNK         0.0888 
     73 H73        33.4531   21.5914   -1.0919 H         1 UNK         0.0888 
     74 H74        33.2999   22.4983   -2.5992 H         1 UNK         0.0888 
     75 H75        31.6211   21.6385    0.1772 H         1 UNK         0.3017 
     76 H76        30.3443   23.8754    1.1121 H         1 UNK         0.0873 
     77 H77        29.1113   21.0707    0.9732 H         1 UNK         0.0745 
     78 H78        28.6599   22.3505    2.0741 H         1 UNK         0.0745 
     79 H79        30.2806   20.5033    4.8979 H         1 UNK         0.0705 
     80 H80        28.8043   20.7796    4.0133 H         1 UNK         0.0705 
     81 H81        31.7611   22.7013    5.3343 H         1 UNK         0.1334 
     82 H82        29.3399   25.8044    7.0290 H         1 UNK         0.1417 
     83 H83        27.5133   22.6588    4.7537 H         1 UNK         0.1562 
     84 H84        26.8981   25.4327    7.1323 H         1 UNK         0.0748 
     85 H85        26.1810   24.0857    6.2976 H         1 UNK         0.0748 
     86 H86        27.7287   27.4655    6.1385 H         1 UNK         0.0940 
     87 H87        26.6209   28.3590    5.1409 H         1 UNK         0.0940 
     88 H88        29.0538   26.8308    4.0676 H         1 UNK         0.0703 
     89 H89        26.7939   27.8572    2.7085 H         1 UNK         0.3081 
     90 H90        26.7645   26.8338    0.5112 H         1 UNK         0.0719 
     91 H91        27.4136   29.7747   -0.0164 H         1 UNK         0.0809 
     92 H92        26.0994   28.8818   -0.7853 H         1 UNK         0.0809 
     93 H93        26.0821   29.1444    0.9434 H         1 UNK         0.0809 
     94 H94        28.5120   26.1536   -0.7756 H         1 UNK         0.2990 
     95 H95        29.1929   27.2036   -3.9871 H         1 UNK         0.0690 
     96 H96        31.6020   26.7056   -3.4971 H         1 UNK         0.0788 
     97 H97        31.3223   27.0369   -1.7870 H         1 UNK         0.0788 
     98 H98        31.1588   28.3237   -2.9715 H         1 UNK         0.0788 
     99 H99        30.0545   24.9687   -2.3687 H         1 UNK         0.2993 
    100 H100       27.0272   23.1800   -2.4300 H         1 UNK         0.0949 
    101 H101       28.1499   21.3806   -3.7291 H         1 UNK         0.0767 
    102 H102       27.6579   22.6788   -4.8028 H         1 UNK         0.0767 
    103 H103       29.3461   22.5285   -4.3345 H         1 UNK         0.0767 
    104 H104       29.6661   22.2761   -1.8900 H         1 UNK         0.3013 
    105 H105       29.7810   28.0873    6.1432 H         1 UNK         0.3121 
    106 H106       31.8652   29.6123    5.5716 H         1 UNK         0.0774 
    107 H107       30.2241   29.7323    8.1520 H         1 UNK         0.0815 
    108 H108       31.5035   28.5849    7.7772 H         1 UNK         0.0815 
    109 H109       31.8856   30.2803    7.9882 H         1 UNK         0.0815 
    110 H110       28.8308   31.1300    6.7465 H         1 UNK         0.2987 
    111 H111       29.8201   33.8142    6.5014 H         1 UNK         0.0949 
    112 H112       26.9618   32.7526    6.8522 H         1 UNK         0.0806 
    113 H113       28.0816   33.1551    8.1555 H         1 UNK         0.0806 
    114 H114       27.4715   34.4165    7.0996 H         1 UNK         0.0806 
    115 H115       28.5507   31.6755    4.1192 H         1 UNK         0.3010 
    116 H116       27.5269   33.8672    2.3795 H         1 UNK         0.0829 
    117 H117       25.9833   31.9923    2.7112 H         1 UNK         0.0813 
    118 H118       26.5755   31.9613    1.0579 H         1 UNK         0.0813 
    119 H119       27.2195   30.8294    2.2447 H         1 UNK         0.0813 
    120 H120       29.7824   31.0336    2.3135 H         1 UNK         0.3038 
    121 H121       31.4739   32.3727    0.2986 H         1 UNK         0.0769 
    122 H122       31.1791   30.5633   -1.3653 H         1 UNK         0.0811 
    123 H123       29.6195   31.2953   -1.0394 H         1 UNK         0.0811 
    124 H124       30.0359   29.7447   -0.3113 H         1 UNK         0.0811 
    125 H125       31.9079   31.5103    3.0712 H         1 UNK         0.3204 
    126 H126       33.5233   30.6262    4.3145 H         1 UNK         0.0748 
    127 H127       35.7953   30.7127    3.3905 H         1 UNK         0.0771 
    128 H128       35.1772   30.6842    1.7453 H         1 UNK         0.0771 
    129 H129       34.8678   32.0732    2.7869 H         1 UNK         0.0771 
    130 H130       31.7298   28.6275    3.0975 H         1 UNK         0.2980 
    131 H131       31.3663   26.4563    3.1707 H         1 UNK         0.0545 
    132 H132       33.3028   26.3943   -0.1596 H         1 UNK         0.3459 
    133 H133       32.8747   27.8135    0.7716 H         1 UNK         0.3459 
    134 H134       34.1309   25.9468    4.3708 H         1 UNK         0.0616 
    135 H135       32.8156   24.8142    4.2921 H         1 UNK         0.0616 
    136 H136       31.7305   25.2146    7.8730 H         1 UNK         0.0634 
    137 H137       32.7650   24.2745    6.8290 H         1 UNK         0.0634 
@<TRIPOS>BOND
     1    1    2 1    
     2    1   72 1    
     3    1   73 1    
     4    1   74 1    
     5    2    3 2    
     6    2    4 am   BACKBONE|DICT|INTERRES
     7    4    5 1    
     8    4   75 1    
     9    5    6 1    
    10    5   35 1    
    11    5   76 1    
    12    6    7 1    
    13    6   77 1    
    14    6   78 1    
    15    7    8 1    
    16    8    9 1    
    17    8   79 1    
    18    8   80 1    
    19    9   10 ar   
    20    9   14 ar   
    21   10   11 ar   
    22   10   81 1    
    23   11   12 ar   
    24   11   71 1    
    25   12   13 ar   
    26   12   82 1    
    27   13   14 ar   
    28   13   15 1    
    29   14   83 1    
    30   15   16 1    
    31   15   84 1    
    32   15   85 1    
    33   16   17 1    
    34   17   18 1    
    35   17   86 1    
    36   17   87 1    
    37   18   19 1    
    38   18   37 1    
    39   18   88 1    
    40   19   20 am   BACKBONE|DICT|INTERRES
    41   19   89 1    
    42   20   21 2    
    43   20   22 1    
    44   22   23 1    
    45   22   24 1    
    46   22   90 1    
    47   23   91 1    
    48   23   92 1    
    49   23   93 1    
    50   24   25 am   BACKBONE|DICT|INTERRES
    51   24   94 1    
    52   25   26 2    
    53   25   27 1    
    54   27   28 1    
    55   27   29 1    
    56   27   95 1    
    57   28   96 1    
    58   28   97 1    
    59   28   98 1    
    60   29   30 am   BACKBONE|DICT|INTERRES
    61   29   99 1    
    62   30   31 2    
    63   30   32 1    
    64   32   33 1    
    65   32   34 1    
    66   32  100 1    
    67   33  101 1    
    68   33  102 1    
    69   33  103 1    
    70   34   35 am   BACKBONE|DICT|INTERRES
    71   34  104 1    
    72   35   36 2    
    73   37   38 2    
    74   37   39 am   BACKBONE|DICT|INTERRES
    75   39   40 1    
    76   39  105 1    
    77   40   41 1    
    78   40   42 1    
    79   40  106 1    
    80   41  107 1    
    81   41  108 1    
    82   41  109 1    
    83   42   43 2    
    84   42   44 am   BACKBONE|DICT|INTERRES
    85   44   45 1    
    86   44  110 1    
    87   45   46 1    
    88   45   47 1    
    89   45  111 1    
    90   46  112 1    
    91   46  113 1    
    92   46  114 1    
    93   47   48 2    
    94   47   49 am   BACKBONE|DICT|INTERRES
    95   49   50 1    
    96   49  115 1    
    97   50   51 1    
    98   50   52 1    
    99   50  116 1    
   100   51  117 1    
   101   51  118 1    
   102   51  119 1    
   103   52   53 2    
   104   52   54 am   BACKBONE|DICT|INTERRES
   105   54   55 1    
   106   54  120 1    
   107   55   56 1    
   108   55   57 1    
   109   55  121 1    
   110   56  122 1    
   111   56  123 1    
   112   56  124 1    
   113   57   58 2    
   114   57   59 am   BACKBONE|DICT|INTERRES
   115   59   60 1    
   116   59  125 1    
   117   60   61 1    
   118   60   62 1    
   119   60  126 1    
   120   61  127 1    
   121   61  128 1    
   122   61  129 1    
   123   62   63 2    
   124   62   64 am   BACKBONE|DICT|INTERRES
   125   64   65 1    
   126   64  130 1    
   127   65   66 1    
   128   65   69 1    
   129   65  131 1    
   130   66   67 am   BACKBONE|DICT|INTERRES
   131   66   68 2    
   132   67  132 1    
   133   67  133 1    
   134   69   70 1    
   135   69  134 1    
   136   69  135 1    
   137   70   71 1    
   138   71  136 1    
   139   71  137 1    
@<TRIPOS>SUBSTRUCTURE
     1 UNK         1 GROUP             0       ****    0 ROOT    
