@<TRIPOS>MOLECULE
3R136
137   139    1
SMALL
USER_CHARGES


@<TRIPOS>ATOM
      1 CA         31.9783   27.8043    2.7156 C.3       0 UNK        -0.1979 
      2 C          31.0829   26.8504    3.4857 C.2       0 UNK         0.4864 
      3 O          30.7047   27.1510    4.6180 O.2       0 UNK        -0.5359 
      4 N          30.7154   25.7145    2.8778 N.am      1 UNK        -0.4318 
      5 CA         29.5781   24.9040    3.3193 C.3       1 UNK         0.0824 
      6 C6         29.6304   23.4374    2.8251 C.3       12 UNK        -0.0944 
      7 S7         31.1232   22.5608    3.3963 S.3       12 UNK        -0.2672 
      8 C8         31.9458   22.1364    1.8284 C.3       12 UNK         0.0333 
      9 C9         32.4630   23.3635    1.0899 C.ar      12 UNK        -0.0807 
     10 C10        33.7049   23.9121    1.4211 C.ar      12 UNK        -0.0894 
     11 C11        34.2103   25.0154    0.7202 C.ar      12 UNK        -0.0804 
     12 C12        33.4503   25.5610   -0.3220 C.ar      12 UNK        -0.0824 
     13 C13        32.2021   25.0249   -0.6626 C.ar      12 UNK        -0.0762 
     14 C14        31.7203   23.9225    0.0467 C.ar      12 UNK        -0.0782 
     15 C15        31.3910   25.5618   -1.8406 C.3       12 UNK         0.0230 
     16 S16        31.3643   27.3782   -1.9875 S.3       12 UNK        -0.2608 
     17 C17        30.4131   27.8888   -0.5210 C.3       12 UNK        -0.0989 
     18 CA         28.9164   28.1422   -0.8429 C.3       5 UNK         0.0716 
     19 N          28.1599   26.8923   -0.8780 N.am      5 UNK        -0.4135 
     20 C          27.3448   26.4950   -1.8603 C.2       4 UNK         0.5031 
     21 O          27.1235   27.1554   -2.8755 O.2       4 UNK        -0.5229 
     22 CA         26.6422   25.1426   -1.6743 C.3       4 UNK         0.0329 
     23 CB         27.6262   23.9797   -1.8886 C.3       4 UNK        -0.2001 
     24 N          26.0382   25.0243   -0.3447 N.am      4 UNK        -0.4303 
     25 C          24.7410   24.7814   -0.1084 C.2       3 UNK         0.5044 
     26 O          23.8960   24.6478   -0.9947 O.2       3 UNK        -0.5152 
     27 CA         24.2960   24.6390    1.3620 C.3       3 UNK         0.0319 
     28 CB         24.1679   23.1539    1.7384 C.3       3 UNK        -0.2001 
     29 N          25.1902   25.2950    2.3185 N.am      3 UNK        -0.4354 
     30 C          25.3350   26.6214    2.4390 C.2       2 UNK         0.4964 
     31 O          24.6555   27.4372    1.8177 O.2       2 UNK        -0.5047 
     32 CA         26.4296   27.1347    3.3943 C.3       2 UNK         0.0288 
     33 CB         25.8053   27.6199    4.7126 C.3       2 UNK        -0.2113 
     34 N          27.5219   26.1983    3.6965 N.am      2 UNK        -0.4145 
     35 C          28.3202   25.6127    2.7930 C.2       1 UNK         0.5006 
     36 O          28.1275   25.6474    1.5744 O.2       1 UNK        -0.5103 
     37 C          28.2370   29.0614    0.1862 C.2       5 UNK         0.5055 
     38 O          28.8173   29.3628    1.2291 O.2       5 UNK        -0.5220 
     39 N          27.0064   29.4910   -0.1278 N.am      6 UNK        -0.4450 
     40 CA         26.1736   30.3658    0.7089 C.3       6 UNK         0.0367 
     41 CB         24.7712   30.4651    0.0868 C.3       6 UNK        -0.1929 
     42 C          26.7563   31.7744    0.9346 C.2       6 UNK         0.5070 
     43 O          26.3931   32.4300    1.9107 O.2       6 UNK        -0.5237 
     44 N          27.6431   32.2158    0.0332 N.am      7 UNK        -0.4739 
     45 CA         28.3512   33.4961    0.1024 C.3       7 UNK         0.0276 
     46 CB         28.7779   33.8939   -1.3213 C.3       7 UNK        -0.1927 
     47 C          29.5694   33.4841    1.0487 C.2       7 UNK         0.5013 
     48 O          30.1745   34.5400    1.2418 O.2       7 UNK        -0.5193 
     49 N          29.9285   32.3172    1.5987 N.am      8 UNK        -0.4253 
     50 CA         31.0681   32.1177    2.4929 C.3       8 UNK         0.0242 
     51 CB         32.2031   31.4354    1.7035 C.3       8 UNK        -0.2000 
     52 C          30.6328   31.3326    3.7422 C.2       8 UNK         0.4948 
     53 O          29.4398   31.0880    3.9359 O.2       8 UNK        -0.5275 
     54 N          31.6041   30.9898    4.5941 N.am      9 UNK        -0.4246 
     55 CA         31.4186   30.2926    5.8642 C.3       9 UNK         0.0261 
     56 CB         30.9959   31.3037    6.9502 C.3       9 UNK        -0.1959 
     57 C          32.7257   29.5774    6.2365 C.2       9 UNK         0.5033 
     58 O          33.7172   29.6963    5.5104 O.2       9 UNK        -0.5390 
     59 N          32.7053   28.8553    7.3655 N.am      10 UNK        -0.4215 
     60 CA         33.8188   28.1803    8.0552 C.3       10 UNK         0.0240 
     61 CB         34.9217   29.1824    8.4511 C.3       10 UNK        -0.1982 
     62 C          34.4219   26.9592    7.3351 C.2       10 UNK         0.4970 
     63 O          34.8462   26.0252    8.0168 O.2       10 UNK        -0.4916 
     64 N          34.4509   26.9701    5.9982 N.am      11 UNK        -0.4279 
     65 CA         34.9232   25.8617    5.1523 C.3       11 UNK         0.1003 
     66 C          34.0658   24.5642    5.2554 C.2       11 UNK         0.5709 
     67 N          32.7907   24.6475    5.6160 N.am      11 UNK        -0.7358 
     68 O          34.5713   23.4682    5.0283 O.2       11 UNK        -0.4999 
     69 C69        35.0855   26.3332    3.6843 C.3       12 UNK        -0.0954 
     70 S70        36.2434   25.3318    2.6997 S.3       12 UNK        -0.2268 
     71 C71        35.5906   25.6120    1.0141 C.3       12 UNK         0.0203 
     72 H72        31.3680   28.6268    2.3501 H         1 UNK         0.0888 
     73 H73        32.7503   28.2199    3.3610 H         1 UNK         0.0888 
     74 H74        32.4555   27.3251    1.8615 H         1 UNK         0.0888 
     75 H75        31.0943   25.4746    1.9728 H         1 UNK         0.3017 
     76 H76        29.5516   24.8846    4.4112 H         1 UNK         0.0873 
     77 H77        29.5574   23.3808    1.7392 H         1 UNK         0.0745 
     78 H78        28.7673   22.8873    3.2048 H         1 UNK         0.0745 
     79 H79        31.2573   21.5690    1.2001 H         1 UNK         0.0705 
     80 H80        32.7786   21.4653    2.0440 H         1 UNK         0.0705 
     81 H81        34.2795   23.4599    2.2174 H         1 UNK         0.1334 
     82 H82        33.8428   26.3959   -0.8864 H         1 UNK         0.1417 
     83 H83        30.7742   23.4795   -0.2323 H         1 UNK         0.1562 
     84 H84        30.3611   25.2089   -1.7937 H         1 UNK         0.0748 
     85 H85        31.8119   25.1502   -2.7587 H         1 UNK         0.0748 
     86 H86        30.8949   28.8008   -0.1654 H         1 UNK         0.0940 
     87 H87        30.5224   27.1561    0.2785 H         1 UNK         0.0940 
     88 H88        28.8566   28.6578   -1.8040 H         1 UNK         0.0703 
     89 H89        28.2215   26.3305   -0.0300 H         1 UNK         0.3081 
     90 H90        25.8754   25.0770   -2.4491 H         1 UNK         0.0719 
     91 H91        28.1452   24.0730   -2.8436 H         1 UNK         0.0809 
     92 H92        28.3811   23.9375   -1.1031 H         1 UNK         0.0809 
     93 H93        27.1044   23.0227   -1.8966 H         1 UNK         0.0809 
     94 H94        26.6579   25.1505    0.4499 H         1 UNK         0.2990 
     95 H95        23.3098   25.0999    1.4502 H         1 UNK         0.0690 
     96 H96        23.7787   23.0321    2.7495 H         1 UNK         0.0788 
     97 H97        25.1275   22.6384    1.6816 H         1 UNK         0.0788 
     98 H98        23.4812   22.6385    1.0653 H         1 UNK         0.0788 
     99 H99        25.7795   24.6966    2.8780 H         1 UNK         0.2993 
    100 H100       26.8896   27.9946    2.9034 H         1 UNK         0.0949 
    101 H101       25.0098   28.3433    4.5268 H         1 UNK         0.0767 
    102 H102       25.3716   26.7957    5.2804 H         1 UNK         0.0767 
    103 H103       26.5449   28.1133    5.3437 H         1 UNK         0.0767 
    104 H104       27.7765   26.1230    4.6713 H         1 UNK         0.3013 
    105 H105       26.6008   29.1823   -1.0007 H         1 UNK         0.3121 
    106 H106       26.0797   29.8979    1.6904 H         1 UNK         0.0774 
    107 H107       24.3067   29.4833   -0.0059 H         1 UNK         0.0815 
    108 H108       24.1120   31.0740    0.7072 H         1 UNK         0.0815 
    109 H109       24.7993   30.9203   -0.9040 H         1 UNK         0.0815 
    110 H110       27.8730   31.6120   -0.7424 H         1 UNK         0.2987 
    111 H111       27.6634   34.2575    0.4771 H         1 UNK         0.0949 
    112 H112       27.9192   33.9617   -1.9895 H         1 UNK         0.0806 
    113 H113       29.2651   34.8700   -1.3266 H         1 UNK         0.0806 
    114 H114       29.4813   33.1774   -1.7474 H         1 UNK         0.0806 
    115 H115       29.3341   31.5044    1.4735 H         1 UNK         0.3010 
    116 H116       31.4331   33.0798    2.8585 H         1 UNK         0.0829 
    117 H117       33.0596   31.1938    2.3332 H         1 UNK         0.0813 
    118 H118       31.8678   30.5149    1.2292 H         1 UNK         0.0813 
    119 H119       32.5687   32.0903    0.9124 H         1 UNK         0.0813 
    120 H120       32.5749   31.1567    4.3588 H         1 UNK         0.3038 
    121 H121       30.6408   29.5355    5.7479 H         1 UNK         0.0769 
    122 H122       30.8057   30.8128    7.9049 H         1 UNK         0.0811 
    123 H123       30.0775   31.8223    6.6742 H         1 UNK         0.0811 
    124 H124       31.7661   32.0578    7.1172 H         1 UNK         0.0811 
    125 H125       31.8173   28.7823    7.8433 H         1 UNK         0.3204 
    126 H126       33.3876   27.7968    8.9814 H         1 UNK         0.0748 
    127 H127       35.6872   28.6986    9.0593 H         1 UNK         0.0771 
    128 H128       35.4223   29.6048    7.5794 H         1 UNK         0.0771 
    129 H129       34.5165   30.0071    9.0376 H         1 UNK         0.0771 
    130 H130       34.1356   27.8146    5.5321 H         1 UNK         0.2980 
    131 H131       35.9157   25.6038    5.5268 H         1 UNK         0.0545 
    132 H132       32.2438   23.8026    5.6571 H         1 UNK         0.3459 
    133 H133       32.3565   25.5414    5.7834 H         1 UNK         0.3459 
    134 H134       34.1195   26.3307    3.1874 H         1 UNK         0.0616 
    135 H135       35.4475   27.3621    3.6495 H         1 UNK         0.0616 
    136 H136       35.5740   26.6880    0.8330 H         1 UNK         0.0634 
    137 H137       36.3006   25.1908    0.3015 H         1 UNK         0.0634 
@<TRIPOS>BOND
     1    1    2 1    
     2    1   72 1    
     3    1   73 1    
     4    1   74 1    
     5    2    3 2    
     6    2    4 am   BACKBONE|DICT|INTERRES
     7    4    5 1    
     8    4   75 1    
     9    5    6 1    
    10    5   35 1    
    11    5   76 1    
    12    6    7 1    
    13    6   77 1    
    14    6   78 1    
    15    7    8 1    
    16    8    9 1    
    17    8   79 1    
    18    8   80 1    
    19    9   10 ar   
    20    9   14 ar   
    21   10   11 ar   
    22   10   81 1    
    23   11   12 ar   
    24   11   71 1    
    25   12   13 ar   
    26   12   82 1    
    27   13   14 ar   
    28   13   15 1    
    29   14   83 1    
    30   15   16 1    
    31   15   84 1    
    32   15   85 1    
    33   16   17 1    
    34   17   18 1    
    35   17   86 1    
    36   17   87 1    
    37   18   19 1    
    38   18   37 1    
    39   18   88 1    
    40   19   20 am   BACKBONE|DICT|INTERRES
    41   19   89 1    
    42   20   21 2    
    43   20   22 1    
    44   22   23 1    
    45   22   24 1    
    46   22   90 1    
    47   23   91 1    
    48   23   92 1    
    49   23   93 1    
    50   24   25 am   BACKBONE|DICT|INTERRES
    51   24   94 1    
    52   25   26 2    
    53   25   27 1    
    54   27   28 1    
    55   27   29 1    
    56   27   95 1    
    57   28   96 1    
    58   28   97 1    
    59   28   98 1    
    60   29   30 am   BACKBONE|DICT|INTERRES
    61   29   99 1    
    62   30   31 2    
    63   30   32 1    
    64   32   33 1    
    65   32   34 1    
    66   32  100 1    
    67   33  101 1    
    68   33  102 1    
    69   33  103 1    
    70   34   35 am   BACKBONE|DICT|INTERRES
    71   34  104 1    
    72   35   36 2    
    73   37   38 2    
    74   37   39 am   BACKBONE|DICT|INTERRES
    75   39   40 1    
    76   39  105 1    
    77   40   41 1    
    78   40   42 1    
    79   40  106 1    
    80   41  107 1    
    81   41  108 1    
    82   41  109 1    
    83   42   43 2    
    84   42   44 am   BACKBONE|DICT|INTERRES
    85   44   45 1    
    86   44  110 1    
    87   45   46 1    
    88   45   47 1    
    89   45  111 1    
    90   46  112 1    
    91   46  113 1    
    92   46  114 1    
    93   47   48 2    
    94   47   49 am   BACKBONE|DICT|INTERRES
    95   49   50 1    
    96   49  115 1    
    97   50   51 1    
    98   50   52 1    
    99   50  116 1    
   100   51  117 1    
   101   51  118 1    
   102   51  119 1    
   103   52   53 2    
   104   52   54 am   BACKBONE|DICT|INTERRES
   105   54   55 1    
   106   54  120 1    
   107   55   56 1    
   108   55   57 1    
   109   55  121 1    
   110   56  122 1    
   111   56  123 1    
   112   56  124 1    
   113   57   58 2    
   114   57   59 am   BACKBONE|DICT|INTERRES
   115   59   60 1    
   116   59  125 1    
   117   60   61 1    
   118   60   62 1    
   119   60  126 1    
   120   61  127 1    
   121   61  128 1    
   122   61  129 1    
   123   62   63 2    
   124   62   64 am   BACKBONE|DICT|INTERRES
   125   64   65 1    
   126   64  130 1    
   127   65   66 1    
   128   65   69 1    
   129   65  131 1    
   130   66   67 am   BACKBONE|DICT|INTERRES
   131   66   68 2    
   132   67  132 1    
   133   67  133 1    
   134   69   70 1    
   135   69  134 1    
   136   69  135 1    
   137   70   71 1    
   138   71  136 1    
   139   71  137 1    
@<TRIPOS>SUBSTRUCTURE
     1 UNK         1 GROUP             0       ****    0 ROOT    
