@<TRIPOS>MOLECULE
3R136
137   139    1
SMALL
USER_CHARGES


@<TRIPOS>ATOM
      1 CA         32.7571   25.5102   -2.7370 C.3       0 UNK        -0.1979 
      2 C          31.5915   26.2961   -2.1553 C.2       0 UNK         0.4864 
      3 O          31.3377   27.4211   -2.5846 O.2       0 UNK        -0.5359 
      4 N          30.8745   25.7077   -1.1890 N.am      1 UNK        -0.4318 
      5 CA         29.7361   26.3151   -0.4864 C.3       1 UNK         0.0824 
      6 C6         29.7135   25.8852    1.0009 C.3       12 UNK        -0.0944 
      7 S7         29.4265   24.0977    1.2580 S.3       12 UNK        -0.2672 
      8 C8         30.5233   23.7526    2.6720 C.3       12 UNK         0.0333 
      9 C9         30.0703   24.4873    3.9258 C.ar      12 UNK        -0.0807 
     10 C10        30.8298   25.5401    4.4482 C.ar      12 UNK        -0.0894 
     11 C11        30.3973   26.2277    5.5867 C.ar      12 UNK        -0.0804 
     12 C12        29.1900   25.8668    6.1911 C.ar      12 UNK        -0.0824 
     13 C13        28.4226   24.8178    5.6777 C.ar      12 UNK        -0.0762 
     14 C14        28.8795   24.1170    4.5578 C.ar      12 UNK        -0.0782 
     15 C15        27.0913   24.4581    6.3234 C.3       12 UNK         0.0230 
     16 S16        25.6797   24.7114    5.1963 S.3       12 UNK        -0.2608 
     17 C17        25.8762   26.4604    4.6983 C.3       12 UNK        -0.0989 
     18 CA         26.4744   26.6007    3.2684 C.3       5 UNK         0.0716 
     19 N          25.7257   25.8737    2.2342 N.am      5 UNK        -0.4135 
     20 C          24.4598   26.1044    1.8529 C.2       4 UNK         0.5031 
     21 O          23.7238   26.9366    2.3851 O.2       4 UNK        -0.5229 
     22 CA         23.9282   25.3039    0.6527 C.3       4 UNK         0.0329 
     23 CB         23.3924   26.2522   -0.4358 C.3       4 UNK        -0.2001 
     24 N          24.9641   24.4629    0.0509 N.am      4 UNK        -0.4303 
     25 C          24.9326   23.1268   -0.0491 C.2       3 UNK         0.5044 
     26 O          24.0430   22.4272    0.4378 O.2       3 UNK        -0.5152 
     27 CA         26.0939   22.4556   -0.8186 C.3       3 UNK         0.0319 
     28 CB         25.6400   21.2064   -1.6032 C.3       3 UNK        -0.2001 
     29 N          26.8372   23.3822   -1.6854 N.am      3 UNK        -0.4354 
     30 C          26.3635   24.0967   -2.7209 C.2       2 UNK         0.4964 
     31 O          25.2365   23.9487   -3.1950 O.2       2 UNK        -0.5047 
     32 CA         27.2863   25.1917   -3.2980 C.3       2 UNK         0.0288 
     33 CB         26.4964   26.4564   -3.7003 C.3       2 UNK        -0.2113 
     34 N          28.4164   25.5534   -2.4275 N.am      2 UNK        -0.4145 
     35 C          28.3784   26.0803   -1.1914 C.2       1 UNK         0.5006 
     36 O          27.3296   26.3258   -0.5844 O.2       1 UNK        -0.5103 
     37 C          26.7447   28.0686    2.8590 C.2       5 UNK         0.5055 
     38 O          26.9181   28.9290    3.7235 O.2       5 UNK        -0.5220 
     39 N          26.8024   28.3295    1.5443 N.am      6 UNK        -0.4450 
     40 CA         27.0349   29.6397    0.9397 C.3       6 UNK         0.0367 
     41 CB         26.1074   29.7833   -0.2821 C.3       6 UNK        -0.1929 
     42 C          28.5210   29.7859    0.5746 C.2       6 UNK         0.5070 
     43 O          28.8566   30.0050   -0.5902 O.2       6 UNK        -0.5237 
     44 N          29.3945   29.6028    1.5720 N.am      7 UNK        -0.4739 
     45 CA         30.8488   29.6755    1.4272 C.3       7 UNK         0.0276 
     46 CB         31.5010   29.0630    2.6756 C.3       7 UNK        -0.1927 
     47 C          31.3311   31.1201    1.2098 C.2       7 UNK         0.5013 
     48 O          30.7841   32.0470    1.8123 O.2       7 UNK        -0.5193 
     49 N          32.3659   31.2779    0.3742 N.am      8 UNK        -0.4253 
     50 CA         32.9852   32.5678    0.0463 C.3       8 UNK         0.0242 
     51 CB         33.7164   32.4385   -1.3009 C.3       8 UNK        -0.2000 
     52 C          33.9486   33.0878    1.1311 C.2       8 UNK         0.4948 
     53 O          34.3213   34.2613    1.0896 O.2       8 UNK        -0.5275 
     54 N          34.3438   32.2194    2.0668 N.am      9 UNK        -0.4246 
     55 CA         35.2140   32.5014    3.2028 C.3       9 UNK         0.0261 
     56 CB         36.6835   32.2911    2.7935 C.3       9 UNK        -0.1959 
     57 C          34.8099   31.5656    4.3483 C.2       9 UNK         0.5033 
     58 O          34.0675   30.6067    4.1166 O.2       9 UNK        -0.5390 
     59 N          35.2988   31.8551    5.5603 N.am      10 UNK        -0.4215 
     60 CA         35.0357   31.0701    6.7679 C.3       10 UNK         0.0240 
     61 CB         35.6027   31.8070    7.9932 C.3       10 UNK        -0.1982 
     62 C          35.6145   29.6479    6.6661 C.2       10 UNK         0.4970 
     63 O          36.8253   29.4939    6.4894 O.2       10 UNK        -0.4916 
     64 N          34.7352   28.6489    6.7817 N.am      11 UNK        -0.4279 
     65 CA         35.0698   27.2206    6.8422 C.3       11 UNK         0.1003 
     66 C          35.7571   26.8125    8.1768 C.2       11 UNK         0.5709 
     67 N          36.4736   25.6962    8.1854 N.am      11 UNK        -0.7358 
     68 O          35.6335   27.4781    9.2042 O.2       11 UNK        -0.4999 
     69 C69        33.8331   26.3357    6.5174 C.3       12 UNK        -0.0954 
     70 S70        32.3378   26.7709    7.4775 S.3       12 UNK        -0.2268 
     71 C71        31.2186   27.3673    6.1713 C.3       12 UNK         0.0203 
     72 H72        33.6883   26.0558   -2.5869 H         1 UNK         0.0888 
     73 H73        32.8608   24.5296   -2.2726 H         1 UNK         0.0888 
     74 H74        32.6160   25.3654   -3.8077 H         1 UNK         0.0888 
     75 H75        31.1224   24.7777   -0.8792 H         1 UNK         0.3017 
     76 H76        29.8726   27.3964   -0.5001 H         1 UNK         0.0873 
     77 H77        28.9598   26.4452    1.5512 H         1 UNK         0.0745 
     78 H78        30.6641   26.1596    1.4593 H         1 UNK         0.0745 
     79 H79        30.5237   22.6790    2.8654 H         1 UNK         0.0705 
     80 H80        31.5488   24.0174    2.4094 H         1 UNK         0.0705 
     81 H81        31.7563   25.8248    3.9692 H         1 UNK         0.1334 
     82 H82        28.8484   26.4073    7.0634 H         1 UNK         0.1417 
     83 H83        28.2860   23.3082    4.1530 H         1 UNK         0.1562 
     84 H84        26.9265   25.0424    7.2301 H         1 UNK         0.0748 
     85 H85        27.1145   23.4123    6.6327 H         1 UNK         0.0748 
     86 H86        26.5041   26.9695    5.4316 H         1 UNK         0.0940 
     87 H87        24.9015   26.9468    4.7573 H         1 UNK         0.0940 
     88 H88        27.4592   26.1369    3.2909 H         1 UNK         0.0703 
     89 H89        26.2413   25.1578    1.7440 H         1 UNK         0.3081 
     90 H90        23.1009   24.6930    1.0190 H         1 UNK         0.0719 
     91 H91        22.5765   26.8688   -0.0565 H         1 UNK         0.0809 
     92 H92        24.1698   26.9253   -0.8007 H         1 UNK         0.0809 
     93 H93        23.0059   25.6953   -1.2898 H         1 UNK         0.0809 
     94 H94        25.7401   24.9578   -0.3764 H         1 UNK         0.2990 
     95 H95        26.8022   22.1259   -0.0570 H         1 UNK         0.0690 
     96 H96        26.4734   20.7469   -2.1344 H         1 UNK         0.0788 
     97 H97        24.8661   21.4445   -2.3335 H         1 UNK         0.0788 
     98 H98        25.2296   20.4505   -0.9325 H         1 UNK         0.0788 
     99 H99        27.7816   23.5809   -1.3858 H         1 UNK         0.2993 
    100 H100       27.7207   24.7683   -4.2050 H         1 UNK         0.0949 
    101 H101       25.9663   26.8904   -2.8517 H         1 UNK         0.0767 
    102 H102       27.1553   27.2219   -4.1101 H         1 UNK         0.0767 
    103 H103       25.7526   26.2296   -4.4651 H         1 UNK         0.0767 
    104 H104       29.3327   25.3795   -2.8164 H         1 UNK         0.3013 
    105 H105       26.7372   27.5548    0.8909 H         1 UNK         0.3121 
    106 H106       26.7881   30.4343    1.6471 H         1 UNK         0.0774 
    107 H107       26.3160   29.0257   -1.0391 H         1 UNK         0.0815 
    108 H108       25.0596   29.6895    0.0038 H         1 UNK         0.0815 
    109 H109       26.2289   30.7595   -0.7531 H         1 UNK         0.0815 
    110 H110       29.0321   29.4697    2.5064 H         1 UNK         0.2987 
    111 H111       31.1343   29.0771    0.5596 H         1 UNK         0.0949 
    112 H112       31.1211   28.0623    2.8755 H         1 UNK         0.0806 
    113 H113       32.5809   28.9785    2.5505 H         1 UNK         0.0806 
    114 H114       31.3230   29.6718    3.5634 H         1 UNK         0.0806 
    115 H115       32.7586   30.4642   -0.0781 H         1 UNK         0.3010 
    116 H116       32.1947   33.3131   -0.0668 H         1 UNK         0.0829 
    117 H117       34.5243   31.7071   -1.2544 H         1 UNK         0.0813 
    118 H118       34.1572   33.3909   -1.5993 H         1 UNK         0.0813 
    119 H119       33.0342   32.1375   -2.0962 H         1 UNK         0.0813 
    120 H120       33.9329   31.2944    2.0914 H         1 UNK         0.3038 
    121 H121       35.0633   33.5316    3.5330 H         1 UNK         0.0769 
    122 H122       36.9632   32.9489    1.9704 H         1 UNK         0.0811 
    123 H123       36.8689   31.2636    2.4776 H         1 UNK         0.0811 
    124 H124       37.3604   32.5058    3.6211 H         1 UNK         0.0811 
    125 H125       35.9256   32.6407    5.6589 H         1 UNK         0.3204 
    126 H126       33.9520   31.0037    6.8883 H         1 UNK         0.0748 
    127 H127       36.6824   31.9446    7.9192 H         1 UNK         0.0771 
    128 H128       35.1456   32.7895    8.1137 H         1 UNK         0.0771 
    129 H129       35.4085   31.2459    8.9085 H         1 UNK         0.0771 
    130 H130       33.7638   28.8663    6.9447 H         1 UNK         0.2980 
    131 H131       35.8062   27.0403    6.0564 H         1 UNK         0.0545 
    132 H132       36.5790   25.1362    7.3537 H         1 UNK         0.3459 
    133 H133       36.9202   25.4086    9.0422 H         1 UNK         0.3459 
    134 H134       34.0520   25.2791    6.6808 H         1 UNK         0.0616 
    135 H135       33.6118   26.4176    5.4530 H         1 UNK         0.0616 
    136 H136       30.5513   28.1164    6.6002 H         1 UNK         0.0634 
    137 H137       31.7843   27.8810    5.3931 H         1 UNK         0.0634 
@<TRIPOS>BOND
     1    1    2 1    
     2    1   72 1    
     3    1   73 1    
     4    1   74 1    
     5    2    3 2    
     6    2    4 am   BACKBONE|DICT|INTERRES
     7    4    5 1    
     8    4   75 1    
     9    5    6 1    
    10    5   35 1    
    11    5   76 1    
    12    6    7 1    
    13    6   77 1    
    14    6   78 1    
    15    7    8 1    
    16    8    9 1    
    17    8   79 1    
    18    8   80 1    
    19    9   10 ar   
    20    9   14 ar   
    21   10   11 ar   
    22   10   81 1    
    23   11   12 ar   
    24   11   71 1    
    25   12   13 ar   
    26   12   82 1    
    27   13   14 ar   
    28   13   15 1    
    29   14   83 1    
    30   15   16 1    
    31   15   84 1    
    32   15   85 1    
    33   16   17 1    
    34   17   18 1    
    35   17   86 1    
    36   17   87 1    
    37   18   19 1    
    38   18   37 1    
    39   18   88 1    
    40   19   20 am   BACKBONE|DICT|INTERRES
    41   19   89 1    
    42   20   21 2    
    43   20   22 1    
    44   22   23 1    
    45   22   24 1    
    46   22   90 1    
    47   23   91 1    
    48   23   92 1    
    49   23   93 1    
    50   24   25 am   BACKBONE|DICT|INTERRES
    51   24   94 1    
    52   25   26 2    
    53   25   27 1    
    54   27   28 1    
    55   27   29 1    
    56   27   95 1    
    57   28   96 1    
    58   28   97 1    
    59   28   98 1    
    60   29   30 am   BACKBONE|DICT|INTERRES
    61   29   99 1    
    62   30   31 2    
    63   30   32 1    
    64   32   33 1    
    65   32   34 1    
    66   32  100 1    
    67   33  101 1    
    68   33  102 1    
    69   33  103 1    
    70   34   35 am   BACKBONE|DICT|INTERRES
    71   34  104 1    
    72   35   36 2    
    73   37   38 2    
    74   37   39 am   BACKBONE|DICT|INTERRES
    75   39   40 1    
    76   39  105 1    
    77   40   41 1    
    78   40   42 1    
    79   40  106 1    
    80   41  107 1    
    81   41  108 1    
    82   41  109 1    
    83   42   43 2    
    84   42   44 am   BACKBONE|DICT|INTERRES
    85   44   45 1    
    86   44  110 1    
    87   45   46 1    
    88   45   47 1    
    89   45  111 1    
    90   46  112 1    
    91   46  113 1    
    92   46  114 1    
    93   47   48 2    
    94   47   49 am   BACKBONE|DICT|INTERRES
    95   49   50 1    
    96   49  115 1    
    97   50   51 1    
    98   50   52 1    
    99   50  116 1    
   100   51  117 1    
   101   51  118 1    
   102   51  119 1    
   103   52   53 2    
   104   52   54 am   BACKBONE|DICT|INTERRES
   105   54   55 1    
   106   54  120 1    
   107   55   56 1    
   108   55   57 1    
   109   55  121 1    
   110   56  122 1    
   111   56  123 1    
   112   56  124 1    
   113   57   58 2    
   114   57   59 am   BACKBONE|DICT|INTERRES
   115   59   60 1    
   116   59  125 1    
   117   60   61 1    
   118   60   62 1    
   119   60  126 1    
   120   61  127 1    
   121   61  128 1    
   122   61  129 1    
   123   62   63 2    
   124   62   64 am   BACKBONE|DICT|INTERRES
   125   64   65 1    
   126   64  130 1    
   127   65   66 1    
   128   65   69 1    
   129   65  131 1    
   130   66   67 am   BACKBONE|DICT|INTERRES
   131   66   68 2    
   132   67  132 1    
   133   67  133 1    
   134   69   70 1    
   135   69  134 1    
   136   69  135 1    
   137   70   71 1    
   138   71  136 1    
   139   71  137 1    
@<TRIPOS>SUBSTRUCTURE
     1 UNK         1 GROUP             0       ****    0 ROOT    
