@<TRIPOS>MOLECULE
3R136
137   139    1
SMALL
USER_CHARGES


@<TRIPOS>ATOM
      1 CA         28.8942   22.5295   -3.8522 C.3       0 UNK        -0.1979 
      2 C          28.9837   23.0012   -2.4093 C.2       0 UNK         0.4864 
      3 O          28.9219   24.2052   -2.1582 O.2       0 UNK        -0.5359 
      4 N          29.1152   22.0627   -1.4599 N.am      1 UNK        -0.4318 
      5 CA         29.2494   22.3155   -0.0183 C.3       1 UNK         0.0824 
      6 C6         29.4472   21.0059    0.7840 C.3       12 UNK        -0.0944 
      7 S7         31.1849   20.4627    0.7081 S.3       12 UNK        -0.2672 
      8 C8         31.7025   20.5961    2.4535 C.3       12 UNK         0.0333 
      9 C9         31.5347   21.9989    3.0305 C.ar      12 UNK        -0.0807 
     10 C10        32.3611   23.0426    2.6062 C.ar      12 UNK        -0.0894 
     11 C11        32.2375   24.3170    3.1676 C.ar      12 UNK        -0.0804 
     12 C12        31.2808   24.5459    4.1612 C.ar      12 UNK        -0.0824 
     13 C13        30.4357   23.5143    4.5905 C.ar      12 UNK        -0.0762 
     14 C14        30.5751   22.2444    4.0190 C.ar      12 UNK        -0.0782 
     15 C15        29.3932   23.7109    5.6953 C.3       12 UNK         0.0230 
     16 S16        28.7478   25.4107    5.8968 S.3       12 UNK        -0.2608 
     17 C17        27.9384   25.7019    4.2890 C.3       12 UNK        -0.0989 
     18 CA         28.5184   26.9537    3.5703 C.3       5 UNK         0.0716 
     19 N          28.9059   26.6849    2.1822 N.am      5 UNK        -0.4135 
     20 C          29.7501   27.4520    1.4762 C.2       4 UNK         0.5031 
     21 O          30.3490   28.4175    1.9439 O.2       4 UNK        -0.5229 
     22 CA         29.9528   27.1084   -0.0099 C.3       4 UNK         0.0329 
     23 CB         31.0469   26.0457   -0.1846 C.3       4 UNK        -0.2001 
     24 N          28.7244   26.6732   -0.6770 N.am      4 UNK        -0.4303 
     25 C          27.6452   27.4491   -0.8521 C.2       3 UNK         0.5044 
     26 O          27.5726   28.6178   -0.4750 O.2       3 UNK        -0.5152 
     27 CA         26.4264   26.8031   -1.5281 C.3       3 UNK         0.0319 
     28 CB         26.5917   26.7830   -3.0560 C.3       3 UNK        -0.2001 
     29 N          26.1779   25.4472   -1.0379 N.am      3 UNK        -0.4354 
     30 C          25.7675   25.1557    0.2046 C.2       2 UNK         0.4964 
     31 O          25.5221   26.0013    1.0654 O.2       2 UNK        -0.5047 
     32 CA         25.6738   23.6616    0.5603 C.3       2 UNK         0.0288 
     33 CB         24.4066   23.0317   -0.0400 C.3       2 UNK        -0.2113 
     34 N          26.8549   22.9017    0.1365 N.am      2 UNK        -0.4145 
     35 C          28.0995   23.1514    0.5707 C.2       1 UNK         0.5006 
     36 O          28.3696   24.0358    1.3798 O.2       1 UNK        -0.5103 
     37 C          27.5657   28.1631    3.6774 C.2       5 UNK         0.5055 
     38 O          27.6905   28.9427    4.6233 O.2       5 UNK        -0.5220 
     39 N          26.6342   28.3047    2.7183 N.am      6 UNK        -0.4450 
     40 CA         25.7050   29.4377    2.6278 C.3       6 UNK         0.0367 
     41 CB         24.6402   29.1643    1.5545 C.3       6 UNK        -0.1929 
     42 C          26.4203   30.7727    2.3597 C.2       6 UNK         0.5070 
     43 O          26.0543   31.7890    2.9526 O.2       6 UNK        -0.5237 
     44 N          27.4599   30.7447    1.5157 N.am      7 UNK        -0.4739 
     45 CA         28.4072   31.8392    1.2960 C.3       7 UNK         0.0276 
     46 CB         29.1413   31.5960   -0.0357 C.3       7 UNK        -0.1927 
     47 C          29.3776   31.9625    2.4878 C.2       7 UNK         0.5013 
     48 O          30.5686   31.6911    2.3416 O.2       7 UNK        -0.5193 
     49 N          28.8355   32.3637    3.6467 N.am      8 UNK        -0.4253 
     50 CA         29.4313   32.3368    4.9915 C.3       8 UNK         0.0242 
     51 CB         28.4010   32.8967    5.9876 C.3       8 UNK        -0.2000 
     52 C          30.8010   33.0202    5.1902 C.2       8 UNK         0.4948 
     53 O          31.4070   32.8348    6.2470 O.2       8 UNK        -0.5275 
     54 N          31.2816   33.7798    4.1972 N.am      9 UNK        -0.4246 
     55 CA         32.6651   34.2552    4.1146 C.3       9 UNK         0.0261 
     56 CB         32.7722   35.3074    2.9990 C.3       9 UNK        -0.1959 
     57 C          33.6766   33.1130    3.8792 C.2       9 UNK         0.5033 
     58 O          34.8327   33.2476    4.2836 O.2       9 UNK        -0.5390 
     59 N          33.2317   32.0211    3.2422 N.am      10 UNK        -0.4215 
     60 CA         33.9801   30.7815    3.0398 C.3       10 UNK         0.0240 
     61 CB         33.7315   30.3118    1.5945 C.3       10 UNK        -0.1982 
     62 C          33.4989   29.7157    4.0488 C.2       10 UNK         0.4970 
     63 O          32.4270   29.8794    4.6323 O.2       10 UNK        -0.4916 
     64 N          34.2302   28.6169    4.2743 N.am      11 UNK        -0.4279 
     65 CA         35.5550   28.2416    3.7474 C.3       11 UNK         0.1003 
     66 C          36.6476   28.1428    4.8531 C.2       11 UNK         0.5709 
     67 N          36.3635   28.4912    6.1032 N.am      11 UNK        -0.7358 
     68 O          37.7844   27.7729    4.5689 O.2       11 UNK        -0.4999 
     69 C69        35.4765   26.9647    2.8636 C.3       12 UNK        -0.0954 
     70 S70        34.6672   25.5377    3.6696 S.3       12 UNK        -0.2268 
     71 C71        33.1349   25.4487    2.6968 C.3       12 UNK         0.0203 
     72 H72        29.7152   22.9490   -4.4330 H         1 UNK         0.0888 
     73 H73        28.9420   21.4435   -3.9310 H         1 UNK         0.0888 
     74 H74        27.9570   22.8622   -4.2973 H         1 UNK         0.0888 
     75 H75        29.1741   21.0927   -1.7354 H         1 UNK         0.3017 
     76 H76        30.1431   22.9305    0.1050 H         1 UNK         0.0873 
     77 H77        29.1635   21.1248    1.8310 H         1 UNK         0.0745 
     78 H78        28.8066   20.2101    0.4001 H         1 UNK         0.0745 
     79 H79        32.7507   20.3038    2.5300 H         1 UNK         0.0705 
     80 H80        31.1429   19.8672    3.0419 H         1 UNK         0.0705 
     81 H81        33.1061   22.8591    1.8439 H         1 UNK         0.1334 
     82 H82        31.2036   25.5304    4.6000 H         1 UNK         0.1417 
     83 H83        29.9398   21.4366    4.3566 H         1 UNK         0.1562 
     84 H84        29.8383   23.4010    6.6415 H         1 UNK         0.0748 
     85 H85        28.5435   23.0476    5.5248 H         1 UNK         0.0748 
     86 H86        26.8600   25.7722    4.4473 H         1 UNK         0.0940 
     87 H87        28.0688   24.8067    3.6853 H         1 UNK         0.0940 
     88 H88        29.4373   27.2516    4.0807 H         1 UNK         0.0703 
     89 H89        28.5322   25.8396    1.7555 H         1 UNK         0.3081 
     90 H90        30.2858   28.0175   -0.5154 H         1 UNK         0.0719 
     91 H91        30.8430   25.1543    0.4087 H         1 UNK         0.0809 
     92 H92        31.1498   25.7423   -1.2266 H         1 UNK         0.0809 
     93 H93        32.0118   26.4408    0.1319 H         1 UNK         0.0809 
     94 H94        28.7178   25.7325   -1.0664 H         1 UNK         0.2990 
     95 H95        25.5517   27.4124   -1.2910 H         1 UNK         0.0690 
     96 H96        26.7565   27.7900   -3.4418 H         1 UNK         0.0788 
     97 H97        25.7005   26.3908   -3.5460 H         1 UNK         0.0788 
     98 H98        27.4412   26.1729   -3.3654 H         1 UNK         0.0788 
     99 H99        26.4197   24.6884   -1.6588 H         1 UNK         0.2993 
    100 H100       25.6083   23.5903    1.6484 H         1 UNK         0.0949 
    101 H101       24.4272   23.0351   -1.1305 H         1 UNK         0.0767 
    102 H102       24.2827   22.0001    0.2902 H         1 UNK         0.0767 
    103 H103       23.5152   23.5786    0.2712 H         1 UNK         0.0767 
    104 H104       26.7151   22.1641   -0.5386 H         1 UNK         0.3013 
    105 H105       26.5503   27.5916    2.0017 H         1 UNK         0.3121 
    106 H106       25.1978   29.5258    3.5910 H         1 UNK         0.0774 
    107 H107       25.0835   29.0422    0.5663 H         1 UNK         0.0815 
    108 H108       23.9288   29.9888    1.4928 H         1 UNK         0.0815 
    109 H109       24.0711   28.2625    1.7806 H         1 UNK         0.0815 
    110 H110       27.6597   29.8749    1.0288 H         1 UNK         0.2987 
    111 H111       27.8557   32.7783    1.2124 H         1 UNK         0.0949 
    112 H112       29.7034   30.6608   -0.0185 H         1 UNK         0.0806 
    113 H113       28.4425   31.5483   -0.8710 H         1 UNK         0.0806 
    114 H114       29.8482   32.3995   -0.2463 H         1 UNK         0.0806 
    115 H115       27.8320   32.5149    3.6241 H         1 UNK         0.3010 
    116 H116       29.5892   31.2823    5.2282 H         1 UNK         0.0829 
    117 H117       28.7743   32.8493    7.0117 H         1 UNK         0.0813 
    118 H118       28.1627   33.9394    5.7744 H         1 UNK         0.0813 
    119 H119       27.4724   32.3258    5.9597 H         1 UNK         0.0813 
    120 H120       30.7209   33.8644    3.3617 H         1 UNK         0.3038 
    121 H121       32.9192   34.7326    5.0633 H         1 UNK         0.0769 
    122 H122       32.5177   34.8898    2.0239 H         1 UNK         0.0811 
    123 H123       33.7878   35.6997    2.9304 H         1 UNK         0.0811 
    124 H124       32.1113   36.1540    3.1863 H         1 UNK         0.0811 
    125 H125       32.2429   31.9641    2.9956 H         1 UNK         0.3204 
    126 H126       35.0422   30.9798    3.1861 H         1 UNK         0.0748 
    127 H127       34.0060   31.0835    0.8751 H         1 UNK         0.0771 
    128 H128       34.3156   29.4253    1.3521 H         1 UNK         0.0771 
    129 H129       32.6815   30.0626    1.4301 H         1 UNK         0.0771 
    130 H130       33.8559   27.9416    4.9239 H         1 UNK         0.2980 
    131 H131       35.9329   29.0274    3.0974 H         1 UNK         0.0545 
    132 H132       37.0844   28.4311    6.8051 H         1 UNK         0.3459 
    133 H133       35.4474   28.8291    6.3506 H         1 UNK         0.3459 
    134 H134       34.9414   27.2000    1.9432 H         1 UNK         0.0616 
    135 H135       36.4708   26.6543    2.5376 H         1 UNK         0.0616 
    136 H136       32.6056   26.4014    2.7599 H         1 UNK         0.0634 
    137 H137       33.3938   25.3014    1.6478 H         1 UNK         0.0634 
@<TRIPOS>BOND
     1    1    2 1    
     2    1   72 1    
     3    1   73 1    
     4    1   74 1    
     5    2    3 2    
     6    2    4 am   BACKBONE|DICT|INTERRES
     7    4    5 1    
     8    4   75 1    
     9    5    6 1    
    10    5   35 1    
    11    5   76 1    
    12    6    7 1    
    13    6   77 1    
    14    6   78 1    
    15    7    8 1    
    16    8    9 1    
    17    8   79 1    
    18    8   80 1    
    19    9   10 ar   
    20    9   14 ar   
    21   10   11 ar   
    22   10   81 1    
    23   11   12 ar   
    24   11   71 1    
    25   12   13 ar   
    26   12   82 1    
    27   13   14 ar   
    28   13   15 1    
    29   14   83 1    
    30   15   16 1    
    31   15   84 1    
    32   15   85 1    
    33   16   17 1    
    34   17   18 1    
    35   17   86 1    
    36   17   87 1    
    37   18   19 1    
    38   18   37 1    
    39   18   88 1    
    40   19   20 am   BACKBONE|DICT|INTERRES
    41   19   89 1    
    42   20   21 2    
    43   20   22 1    
    44   22   23 1    
    45   22   24 1    
    46   22   90 1    
    47   23   91 1    
    48   23   92 1    
    49   23   93 1    
    50   24   25 am   BACKBONE|DICT|INTERRES
    51   24   94 1    
    52   25   26 2    
    53   25   27 1    
    54   27   28 1    
    55   27   29 1    
    56   27   95 1    
    57   28   96 1    
    58   28   97 1    
    59   28   98 1    
    60   29   30 am   BACKBONE|DICT|INTERRES
    61   29   99 1    
    62   30   31 2    
    63   30   32 1    
    64   32   33 1    
    65   32   34 1    
    66   32  100 1    
    67   33  101 1    
    68   33  102 1    
    69   33  103 1    
    70   34   35 am   BACKBONE|DICT|INTERRES
    71   34  104 1    
    72   35   36 2    
    73   37   38 2    
    74   37   39 am   BACKBONE|DICT|INTERRES
    75   39   40 1    
    76   39  105 1    
    77   40   41 1    
    78   40   42 1    
    79   40  106 1    
    80   41  107 1    
    81   41  108 1    
    82   41  109 1    
    83   42   43 2    
    84   42   44 am   BACKBONE|DICT|INTERRES
    85   44   45 1    
    86   44  110 1    
    87   45   46 1    
    88   45   47 1    
    89   45  111 1    
    90   46  112 1    
    91   46  113 1    
    92   46  114 1    
    93   47   48 2    
    94   47   49 am   BACKBONE|DICT|INTERRES
    95   49   50 1    
    96   49  115 1    
    97   50   51 1    
    98   50   52 1    
    99   50  116 1    
   100   51  117 1    
   101   51  118 1    
   102   51  119 1    
   103   52   53 2    
   104   52   54 am   BACKBONE|DICT|INTERRES
   105   54   55 1    
   106   54  120 1    
   107   55   56 1    
   108   55   57 1    
   109   55  121 1    
   110   56  122 1    
   111   56  123 1    
   112   56  124 1    
   113   57   58 2    
   114   57   59 am   BACKBONE|DICT|INTERRES
   115   59   60 1    
   116   59  125 1    
   117   60   61 1    
   118   60   62 1    
   119   60  126 1    
   120   61  127 1    
   121   61  128 1    
   122   61  129 1    
   123   62   63 2    
   124   62   64 am   BACKBONE|DICT|INTERRES
   125   64   65 1    
   126   64  130 1    
   127   65   66 1    
   128   65   69 1    
   129   65  131 1    
   130   66   67 am   BACKBONE|DICT|INTERRES
   131   66   68 2    
   132   67  132 1    
   133   67  133 1    
   134   69   70 1    
   135   69  134 1    
   136   69  135 1    
   137   70   71 1    
   138   71  136 1    
   139   71  137 1    
@<TRIPOS>SUBSTRUCTURE
     1 UNK         1 GROUP             0       ****    0 ROOT    
