@<TRIPOS>MOLECULE
3R136
137   139    1
SMALL
USER_CHARGES


@<TRIPOS>ATOM
      1 CA         26.4841   20.4802    6.8732 C.3       0 UNK        -0.1979 
      2 C          26.9703   20.9989    5.5282 C.2       0 UNK         0.4864 
      3 O          26.6821   20.3904    4.4957 O.2       0 UNK        -0.5359 
      4 N          27.6993   22.1233    5.5258 N.am      1 UNK        -0.4318 
      5 CA         28.2398   22.7830    4.3316 C.3       1 UNK         0.0824 
      6 C6         29.5063   23.6177    4.6775 C.3       12 UNK        -0.0944 
      7 S7         30.7615   23.6236    3.3524 S.3       12 UNK        -0.2672 
      8 C8         30.1093   24.9050    2.2419 C.3       12 UNK         0.0333 
      9 C9         31.2208   25.5852    1.4595 C.ar      12 UNK        -0.0807 
     10 C10        31.8594   26.6966    2.0088 C.ar      12 UNK        -0.0894 
     11 C11        32.8613   27.3674    1.3084 C.ar      12 UNK        -0.0804 
     12 C12        33.2150   26.9260    0.0310 C.ar      12 UNK        -0.0824 
     13 C13        32.5693   25.8248   -0.5441 C.ar      12 UNK        -0.0762 
     14 C14        31.5797   25.1491    0.1800 C.ar      12 UNK        -0.0782 
     15 C15        32.9423   25.3641   -1.9469 C.3       12 UNK         0.0230 
     16 S16        31.7771   25.9803   -3.2089 S.3       12 UNK        -0.2608 
     17 C17        32.0644   27.7850   -3.1481 C.3       12 UNK        -0.0989 
     18 CA         30.8341   28.6014   -2.6673 C.3       5 UNK         0.0716 
     19 N          30.2023   28.0264   -1.4728 N.am      5 UNK        -0.4135 
     20 C          28.9667   28.3152   -1.0446 C.2       4 UNK         0.5031 
     21 O          28.2353   29.1666   -1.5556 O.2       4 UNK        -0.5229 
     22 CA         28.4700   27.5172    0.1720 C.3       4 UNK         0.0329 
     23 CB         28.5831   28.3504    1.4596 C.3       4 UNK        -0.2001 
     24 N          27.0974   27.0294    0.0230 N.am      4 UNK        -0.4303 
     25 C          26.6743   26.2001   -0.9425 C.2       3 UNK         0.5044 
     26 O          27.3933   25.7666   -1.8455 O.2       3 UNK        -0.5152 
     27 CA         25.2037   25.7483   -0.8367 C.3       3 UNK         0.0319 
     28 CB         24.7521   24.8788   -2.0301 C.3       3 UNK        -0.2001 
     29 N          24.9212   25.0659    0.4351 N.am      3 UNK        -0.4354 
     30 C          25.5362   23.9763    0.9226 C.2       2 UNK         0.4964 
     31 O          26.4269   23.3541    0.3385 O.2       2 UNK        -0.5047 
     32 CA         25.0415   23.4734    2.2894 C.3       2 UNK         0.0288 
     33 CB         23.9399   22.4158    2.1109 C.3       2 UNK        -0.2113 
     34 N          26.1360   22.8952    3.0701 N.am      2 UNK        -0.4145 
     35 C          27.1321   23.5988    3.6225 C.2       1 UNK         0.5006 
     36 O          27.1662   24.8313    3.6174 O.2       1 UNK        -0.5103 
     37 C          31.2306   30.0802   -2.4736 C.2       5 UNK         0.5055 
     38 O          31.3366   30.8146   -3.4572 O.2       5 UNK        -0.5220 
     39 N          31.4589   30.4809   -1.2190 N.am      6 UNK        -0.4450 
     40 CA         31.8388   31.8167   -0.7799 C.3       6 UNK         0.0367 
     41 CB         33.3542   32.0181   -0.9744 C.3       6 UNK        -0.1929 
     42 C          31.4395   31.9508    0.6947 C.2       6 UNK         0.5070 
     43 O          31.0209   30.9637    1.3044 O.2       6 UNK        -0.5237 
     44 N          31.5643   33.1671    1.2415 N.am      7 UNK        -0.4739 
     45 CA         31.3724   33.5638    2.6491 C.3       7 UNK         0.0276 
     46 CB         32.3582   32.8087    3.5659 C.3       7 UNK        -0.1927 
     47 C          29.9380   33.4559    3.2075 C.2       7 UNK         0.5013 
     48 O          29.6387   34.1424    4.1851 O.2       7 UNK        -0.5193 
     49 N          29.0930   32.6070    2.6046 N.am      8 UNK        -0.4253 
     50 CA         27.7460   32.2161    3.0456 C.3       8 UNK         0.0242 
     51 CB         26.7724   33.4142    3.0209 C.3       8 UNK        -0.2000 
     52 C          27.7679   31.4764    4.4000 C.2       8 UNK         0.4948 
     53 O          26.8428   31.6163    5.2023 O.2       8 UNK        -0.5275 
     54 N          28.8331   30.7005    4.6217 N.am      9 UNK        -0.4246 
     55 CA         29.1258   29.9097    5.8102 C.3       9 UNK         0.0261 
     56 CB         29.6640   30.8228    6.9286 C.3       9 UNK        -0.1959 
     57 C          30.1628   28.8558    5.4040 C.2       9 UNK         0.5033 
     58 O          30.7353   28.9627    4.3167 O.2       9 UNK        -0.5390 
     59 N          30.3889   27.8612    6.2713 N.am      10 UNK        -0.4215 
     60 CA         31.3566   26.7814    6.0586 C.3       10 UNK         0.0240 
     61 CB         31.2254   25.7500    7.1915 C.3       10 UNK        -0.1982 
     62 C          32.8035   27.3000    5.9648 C.2       10 UNK         0.4970 
     63 O          33.2065   28.1302    6.7826 O.2       10 UNK        -0.4916 
     64 N          33.5555   26.7741    4.9912 N.am      11 UNK        -0.4279 
     65 CA         34.9772   27.0818    4.7652 C.3       11 UNK         0.1003 
     66 C          35.9456   26.3636    5.7530 C.2       11 UNK         0.5709 
     67 N          35.4975   25.4042    6.5551 N.am      11 UNK        -0.7358 
     68 O          37.1283   26.6936    5.7999 O.2       11 UNK        -0.4999 
     69 C69        35.3687   26.8255    3.2793 C.3       12 UNK        -0.0954 
     70 S70        35.3157   28.3289    2.2444 S.3       12 UNK        -0.2268 
     71 C71        33.5377   28.5784    1.9355 C.3       12 UNK         0.0203 
     72 H72        26.8141   21.1118    7.6978 H         1 UNK         0.0888 
     73 H73        25.3952   20.4426    6.8890 H         1 UNK         0.0888 
     74 H74        26.8628   19.4730    7.0453 H         1 UNK         0.0888 
     75 H75        27.8738   22.5964    6.4012 H         1 UNK         0.3017 
     76 H76        28.5439   21.9965    3.6366 H         1 UNK         0.0873 
     77 H77        29.2686   24.6374    4.9847 H         1 UNK         0.0745 
     78 H78        30.0094   23.1783    5.5406 H         1 UNK         0.0745 
     79 H79        29.3782   24.4599    1.5648 H         1 UNK         0.0705 
     80 H80        29.5724   25.6569    2.8218 H         1 UNK         0.0705 
     81 H81        31.5641   27.0491    2.9840 H         1 UNK         0.1334 
     82 H82        33.9940   27.4447   -0.5109 H         1 UNK         0.1417 
     83 H83        31.0791   24.2959   -0.2584 H         1 UNK         0.1562 
     84 H84        32.9523   24.2736   -1.9808 H         1 UNK         0.0748 
     85 H85        33.9547   25.6824   -2.2011 H         1 UNK         0.0748 
     86 H86        32.3440   28.1059   -4.1535 H         1 UNK         0.0940 
     87 H87        32.9385   27.9926   -2.5304 H         1 UNK         0.0940 
     88 H88        30.0891   28.5740   -3.4656 H         1 UNK         0.0703 
     89 H89        30.7306   27.3016   -1.0059 H         1 UNK         0.3081 
     90 H90        29.0936   26.6320    0.2718 H         1 UNK         0.0719 
     91 H91        27.9679   29.2490    1.4115 H         1 UNK         0.0809 
     92 H92        28.2784   27.7787    2.3365 H         1 UNK         0.0809 
     93 H93        29.6123   28.6697    1.6296 H         1 UNK         0.0809 
     94 H94        26.4327   27.3351    0.7181 H         1 UNK         0.2990 
     95 H95        24.5992   26.6567   -0.8474 H         1 UNK         0.0690 
     96 H96        24.8873   25.4109   -2.9725 H         1 UNK         0.0788 
     97 H97        23.6965   24.6183   -1.9537 H         1 UNK         0.0788 
     98 H98        25.3217   23.9512   -2.0970 H         1 UNK         0.0788 
     99 H99        24.1986   25.4916    0.9997 H         1 UNK         0.2993 
    100 H100       24.6314   24.3162    2.8506 H         1 UNK         0.0949 
    101 H101       23.5604   22.0719    3.0735 H         1 UNK         0.0767 
    102 H102       23.0934   22.8216    1.5552 H         1 UNK         0.0767 
    103 H103       24.3029   21.5451    1.5629 H         1 UNK         0.0767 
    104 H104       26.1647   21.8850    3.1582 H         1 UNK         0.3013 
    105 H105       31.2773   29.8456   -0.4506 H         1 UNK         0.3121 
    106 H106       31.2840   32.5593   -1.3571 H         1 UNK         0.0774 
    107 H107       33.6657   33.0159   -0.6642 H         1 UNK         0.0815 
    108 H108       33.9332   31.2996   -0.3928 H         1 UNK         0.0815 
    109 H109       33.6392   31.9060   -2.0205 H         1 UNK         0.0815 
    110 H110       31.8685   33.9166    0.6345 H         1 UNK         0.2987 
    111 H111       31.6306   34.6233    2.6933 H         1 UNK         0.0949 
    112 H112       32.1447   31.7394    3.6035 H         1 UNK         0.0806 
    113 H113       33.3880   32.9334    3.2313 H         1 UNK         0.0806 
    114 H114       32.3033   33.1822    4.5893 H         1 UNK         0.0806 
    115 H115       29.5004   32.0376    1.8688 H         1 UNK         0.3010 
    116 H116       27.3872   31.4913    2.3138 H         1 UNK         0.0829 
    117 H117       26.7852   33.9163    2.0537 H         1 UNK         0.0813 
    118 H118       25.7480   33.0868    3.2019 H         1 UNK         0.0813 
    119 H119       27.0147   34.1518    3.7863 H         1 UNK         0.0813 
    120 H120       29.5304   30.5831    3.8933 H         1 UNK         0.3038 
    121 H121       28.2169   29.4021    6.1394 H         1 UNK         0.0769 
    122 H122       30.5763   31.3359    6.6209 H         1 UNK         0.0811 
    123 H123       29.8964   30.2532    7.8290 H         1 UNK         0.0811 
    124 H124       28.9338   31.5823    7.2085 H         1 UNK         0.0811 
    125 H125       29.9037   27.8666    7.1566 H         1 UNK         0.3204 
    126 H126       31.0950   26.2897    5.1205 H         1 UNK         0.0748 
    127 H127       31.8858   24.8984    7.0226 H         1 UNK         0.0771 
    128 H128       31.4868   26.1790    8.1600 H         1 UNK         0.0771 
    129 H129       30.2100   25.3599    7.2614 H         1 UNK         0.0771 
    130 H130       33.1571   26.0771    4.3801 H         1 UNK         0.2980 
    131 H131       35.1174   28.1442    4.9743 H         1 UNK         0.0545 
    132 H132       34.5317   25.1225    6.5300 H         1 UNK         0.3459 
    133 H133       36.1383   24.9557    7.1908 H         1 UNK         0.3459 
    134 H134       36.3932   26.4578    3.1946 H         1 UNK         0.0616 
    135 H135       34.7559   26.0421    2.8310 H         1 UNK         0.0616 
    136 H136       33.0548   28.8540    2.8742 H         1 UNK         0.0634 
    137 H137       33.4155   29.4347    1.2718 H         1 UNK         0.0634 
@<TRIPOS>BOND
     1    1    2 1    
     2    1   72 1    
     3    1   73 1    
     4    1   74 1    
     5    2    3 2    
     6    2    4 am   BACKBONE|DICT|INTERRES
     7    4    5 1    
     8    4   75 1    
     9    5    6 1    
    10    5   35 1    
    11    5   76 1    
    12    6    7 1    
    13    6   77 1    
    14    6   78 1    
    15    7    8 1    
    16    8    9 1    
    17    8   79 1    
    18    8   80 1    
    19    9   10 ar   
    20    9   14 ar   
    21   10   11 ar   
    22   10   81 1    
    23   11   12 ar   
    24   11   71 1    
    25   12   13 ar   
    26   12   82 1    
    27   13   14 ar   
    28   13   15 1    
    29   14   83 1    
    30   15   16 1    
    31   15   84 1    
    32   15   85 1    
    33   16   17 1    
    34   17   18 1    
    35   17   86 1    
    36   17   87 1    
    37   18   19 1    
    38   18   37 1    
    39   18   88 1    
    40   19   20 am   BACKBONE|DICT|INTERRES
    41   19   89 1    
    42   20   21 2    
    43   20   22 1    
    44   22   23 1    
    45   22   24 1    
    46   22   90 1    
    47   23   91 1    
    48   23   92 1    
    49   23   93 1    
    50   24   25 am   BACKBONE|DICT|INTERRES
    51   24   94 1    
    52   25   26 2    
    53   25   27 1    
    54   27   28 1    
    55   27   29 1    
    56   27   95 1    
    57   28   96 1    
    58   28   97 1    
    59   28   98 1    
    60   29   30 am   BACKBONE|DICT|INTERRES
    61   29   99 1    
    62   30   31 2    
    63   30   32 1    
    64   32   33 1    
    65   32   34 1    
    66   32  100 1    
    67   33  101 1    
    68   33  102 1    
    69   33  103 1    
    70   34   35 am   BACKBONE|DICT|INTERRES
    71   34  104 1    
    72   35   36 2    
    73   37   38 2    
    74   37   39 am   BACKBONE|DICT|INTERRES
    75   39   40 1    
    76   39  105 1    
    77   40   41 1    
    78   40   42 1    
    79   40  106 1    
    80   41  107 1    
    81   41  108 1    
    82   41  109 1    
    83   42   43 2    
    84   42   44 am   BACKBONE|DICT|INTERRES
    85   44   45 1    
    86   44  110 1    
    87   45   46 1    
    88   45   47 1    
    89   45  111 1    
    90   46  112 1    
    91   46  113 1    
    92   46  114 1    
    93   47   48 2    
    94   47   49 am   BACKBONE|DICT|INTERRES
    95   49   50 1    
    96   49  115 1    
    97   50   51 1    
    98   50   52 1    
    99   50  116 1    
   100   51  117 1    
   101   51  118 1    
   102   51  119 1    
   103   52   53 2    
   104   52   54 am   BACKBONE|DICT|INTERRES
   105   54   55 1    
   106   54  120 1    
   107   55   56 1    
   108   55   57 1    
   109   55  121 1    
   110   56  122 1    
   111   56  123 1    
   112   56  124 1    
   113   57   58 2    
   114   57   59 am   BACKBONE|DICT|INTERRES
   115   59   60 1    
   116   59  125 1    
   117   60   61 1    
   118   60   62 1    
   119   60  126 1    
   120   61  127 1    
   121   61  128 1    
   122   61  129 1    
   123   62   63 2    
   124   62   64 am   BACKBONE|DICT|INTERRES
   125   64   65 1    
   126   64  130 1    
   127   65   66 1    
   128   65   69 1    
   129   65  131 1    
   130   66   67 am   BACKBONE|DICT|INTERRES
   131   66   68 2    
   132   67  132 1    
   133   67  133 1    
   134   69   70 1    
   135   69  134 1    
   136   69  135 1    
   137   70   71 1    
   138   71  136 1    
   139   71  137 1    
@<TRIPOS>SUBSTRUCTURE
     1 UNK         1 GROUP             0       ****    0 ROOT    
