@<TRIPOS>MOLECULE
3R136
137   139    1
SMALL
USER_CHARGES


@<TRIPOS>ATOM
      1 CA         27.5175   22.0679   -4.7904 C.3       0 UNK        -0.1979 
      2 C          27.9940   22.8752   -3.5928 C.2       0 UNK         0.4864 
      3 O          27.5657   24.0165   -3.4145 O.2       0 UNK        -0.5359 
      4 N          28.8606   22.2871   -2.7530 N.am      1 UNK        -0.4318 
      5 CA         29.4697   22.9286   -1.5763 C.3       1 UNK         0.0824 
      6 C6         30.6037   22.0638   -0.9671 C.3       12 UNK        -0.0944 
      7 S7         32.0120   23.0795   -0.4065 S.3       12 UNK        -0.2672 
      8 C8         32.5846   22.1578    1.0530 C.3       12 UNK         0.0333 
      9 C9         32.0296   22.7344    2.3473 C.ar      12 UNK        -0.0807 
     10 C10        32.7362   23.7363    3.0199 C.ar      12 UNK        -0.0894 
     11 C11        32.2754   24.2311    4.2431 C.ar      12 UNK        -0.0804 
     12 C12        31.1064   23.7070    4.7984 C.ar      12 UNK        -0.0824 
     13 C13        30.3583   22.7472    4.1097 C.ar      12 UNK        -0.0762 
     14 C14        30.8318   22.2552    2.8881 C.ar      12 UNK        -0.0782 
     15 C15        29.0370   22.2456    4.6816 C.3       12 UNK         0.0230 
     16 S16        27.9152   23.6010    5.1748 S.3       12 UNK        -0.2608 
     17 C17        27.7023   24.5154    3.6082 C.3       12 UNK        -0.0989 
     18 CA         28.4672   25.8655    3.5769 C.3       5 UNK         0.0716 
     19 N          28.5941   26.3572    2.2018 N.am      5 UNK        -0.4135 
     20 C          29.0818   27.5319    1.7742 C.2       4 UNK         0.5031 
     21 O          29.4924   28.4328    2.5085 O.2       4 UNK        -0.5229 
     22 CA         29.1308   27.7442    0.2537 C.3       4 UNK         0.0329 
     23 CB         30.4804   27.2612   -0.3028 C.3       4 UNK        -0.2001 
     24 N          28.0407   27.0478   -0.4348 N.am      4 UNK        -0.4303 
     25 C          26.8543   27.5954   -0.7369 C.2       3 UNK         0.5044 
     26 O          26.5720   28.7738   -0.5218 O.2       3 UNK        -0.5152 
     27 CA         25.7986   26.6917   -1.4033 C.3       3 UNK         0.0319 
     28 CB         25.8014   26.8996   -2.9261 C.3       3 UNK        -0.2001 
     29 N          25.9855   25.2687   -1.1094 N.am      3 UNK        -0.4354 
     30 C          25.6819   24.6959    0.0671 C.2       2 UNK         0.4964 
     31 O          25.1365   25.2934    0.9941 O.2       2 UNK        -0.5047 
     32 CA         26.0782   23.2180    0.2672 C.3       2 UNK         0.0288 
     33 CB         24.8893   22.2977   -0.0517 C.3       2 UNK        -0.2113 
     34 N          27.2375   22.7948   -0.5247 N.am      2 UNK        -0.4145 
     35 C          28.4486   23.3727   -0.5055 C.2       1 UNK         0.5006 
     36 O          28.7443   24.2804    0.2706 O.2       1 UNK        -0.5103 
     37 C          27.8553   26.9096    4.5352 C.2       5 UNK         0.5055 
     38 O          26.6378   27.1034    4.5356 O.2       5 UNK        -0.5220 
     39 N          28.7324   27.5790    5.2999 N.am      6 UNK        -0.4450 
     40 CA         28.4558   28.6627    6.2519 C.3       6 UNK         0.0367 
     41 CB         27.6549   28.1292    7.4585 C.3       6 UNK        -0.1929 
     42 C          27.8081   29.9162    5.6215 C.2       6 UNK         0.5070 
     43 O          27.1911   30.7029    6.3419 O.2       6 UNK        -0.5237 
     44 N          27.9576   30.0873    4.3021 N.am      7 UNK        -0.4739 
     45 CA         27.3718   31.1770    3.5195 C.3       7 UNK         0.0276 
     46 CB         26.3334   30.5927    2.5494 C.3       7 UNK        -0.1927 
     47 C          28.4381   31.9715    2.7534 C.2       7 UNK         0.5013 
     48 O          28.2840   33.1850    2.6052 O.2       7 UNK        -0.5193 
     49 N          29.4963   31.2960    2.2838 N.am      8 UNK        -0.4253 
     50 CA         30.6498   31.9224    1.6368 C.3       8 UNK         0.0242 
     51 CB         31.4353   30.8510    0.8634 C.3       8 UNK        -0.2000 
     52 C          31.5521   32.6250    2.6640 C.2       8 UNK         0.4948 
     53 O          31.5973   32.2115    3.8266 O.2       8 UNK        -0.5275 
     54 N          32.2810   33.6538    2.2098 N.am      9 UNK        -0.4246 
     55 CA         33.2494   34.4144    3.0047 C.3       9 UNK         0.0261 
     56 CB         33.7820   35.5935    2.1722 C.3       9 UNK        -0.1959 
     57 C          34.3944   33.5103    3.4930 C.2       9 UNK         0.5033 
     58 O          35.1967   33.0583    2.6741 O.2       9 UNK        -0.5390 
     59 N          34.4033   33.2346    4.8053 N.am      10 UNK        -0.4215 
     60 CA         35.2595   32.2671    5.5064 C.3       10 UNK         0.0240 
     61 CB         36.7483   32.6707    5.4254 C.3       10 UNK        -0.1982 
     62 C          35.0087   30.8009    5.0863 C.2       10 UNK         0.4970 
     63 O          35.9052   29.9685    5.2366 O.2       10 UNK        -0.4916 
     64 N          33.7913   30.5062    4.6051 N.am      11 UNK        -0.4279 
     65 CA         33.3326   29.1979    4.1166 C.3       11 UNK         0.1003 
     66 C          34.0299   28.7316    2.8002 C.2       11 UNK         0.5709 
     67 N          33.6839   27.5563    2.2936 N.am      11 UNK        -0.7358 
     68 O          34.8428   29.4328    2.2017 O.2       11 UNK        -0.4999 
     69 C69        33.3223   28.1297    5.2504 C.3       12 UNK        -0.0954 
     70 S70        32.0314   26.8661    5.0138 S.3       12 UNK        -0.2268 
     71 C71        33.0268   25.3418    4.9587 C.3       12 UNK         0.0203 
     72 H72        27.7782   22.5822   -5.7149 H         1 UNK         0.0888 
     73 H73        27.9642   21.0742   -4.8170 H         1 UNK         0.0888 
     74 H74        26.4344   21.9533   -4.7581 H         1 UNK         0.0888 
     75 H75        29.1659   21.3433   -2.9460 H         1 UNK         0.3017 
     76 H76        29.9115   23.8517   -1.9589 H         1 UNK         0.0873 
     77 H77        30.2358   21.4314   -0.1568 H         1 UNK         0.0745 
     78 H78        31.0061   21.3770   -1.7135 H         1 UNK         0.0745 
     79 H79        32.3283   21.1013    0.9615 H         1 UNK         0.0705 
     80 H80        33.6748   22.1955    1.0762 H         1 UNK         0.0705 
     81 H81        33.6498   24.1251    2.5908 H         1 UNK         0.1334 
     82 H82        30.7506   24.0870    5.7465 H         1 UNK         0.1417 
     83 H83        30.2724   21.4961    2.3590 H         1 UNK         0.1562 
     84 H84        29.2440   21.6241    5.5537 H         1 UNK         0.0748 
     85 H85        28.5191   21.6082    3.9632 H         1 UNK         0.0748 
     86 H86        26.6363   24.6656    3.4254 H         1 UNK         0.0940 
     87 H87        28.0517   23.8743    2.7987 H         1 UNK         0.0940 
     88 H88        29.4894   25.6736    3.9000 H         1 UNK         0.0703 
     89 H89        28.3883   25.6677    1.4856 H         1 UNK         0.3081 
     90 H90        29.0530   28.8172    0.0673 H         1 UNK         0.0719 
     91 H91        30.6294   26.1924   -0.1432 H         1 UNK         0.0809 
     92 H92        30.5597   27.4546   -1.3725 H         1 UNK         0.0809 
     93 H93        31.3100   27.7778    0.1820 H         1 UNK         0.0809 
     94 H94        28.1796   26.0605   -0.6111 H         1 UNK         0.2990 
     95 H95        24.8205   26.9955   -1.0238 H         1 UNK         0.0690 
     96 H96        25.0316   26.2990   -3.4110 H         1 UNK         0.0788 
     97 H97        26.7624   26.6334   -3.3680 H         1 UNK         0.0788 
     98 H98        25.6053   27.9429   -3.1776 H         1 UNK         0.0788 
     99 H99        26.4374   24.7151   -1.8315 H         1 UNK         0.2993 
    100 H100       26.3350   23.0891    1.3197 H         1 UNK         0.0949 
    101 H101       24.6022   22.3586   -1.1024 H         1 UNK         0.0767 
    102 H102       25.1201   21.2566    0.1751 H         1 UNK         0.0767 
    103 H103       24.0149   22.5698    0.5416 H         1 UNK         0.0767 
    104 H104       27.0779   22.0630   -1.2015 H         1 UNK         0.3013 
    105 H105       29.7149   27.3680    5.1715 H         1 UNK         0.3121 
    106 H106       29.4290   28.9888    6.6219 H         1 UNK         0.0774 
    107 H107       27.5730   28.8841    8.2413 H         1 UNK         0.0815 
    108 H108       26.6413   27.8440    7.1752 H         1 UNK         0.0815 
    109 H109       28.1374   27.2579    7.9012 H         1 UNK         0.0815 
    110 H110       28.4948   29.3945    3.7870 H         1 UNK         0.2987 
    111 H111       26.8612   31.8855    4.1754 H         1 UNK         0.0949 
    112 H112       26.7816   29.8586    1.8799 H         1 UNK         0.0806 
    113 H113       25.5236   30.0999    3.0877 H         1 UNK         0.0806 
    114 H114       25.8876   31.3729    1.9310 H         1 UNK         0.0806 
    115 H115       29.5592   30.2960    2.4513 H         1 UNK         0.3010 
    116 H116       30.2889   32.6694    0.9262 H         1 UNK         0.0829 
    117 H117       30.8527   30.4634    0.0282 H         1 UNK         0.0813 
    118 H118       32.3602   31.2548    0.4492 H         1 UNK         0.0813 
    119 H119       31.7035   30.0094    1.5009 H         1 UNK         0.0813 
    120 H120       32.2107   33.9038    1.2339 H         1 UNK         0.3038 
    121 H121       32.7236   34.8245    3.8698 H         1 UNK         0.0769 
    122 H122       32.9783   36.2697    1.8804 H         1 UNK         0.0811 
    123 H123       34.2834   35.2555    1.2642 H         1 UNK         0.0811 
    124 H124       34.5044   36.1779    2.7437 H         1 UNK         0.0811 
    125 H125       33.6733   33.6467    5.3716 H         1 UNK         0.3204 
    126 H126       34.9683   32.3219    6.5564 H         1 UNK         0.0748 
    127 H127       36.8961   33.7072    5.7283 H         1 UNK         0.0771 
    128 H128       37.3578   32.0523    6.0855 H         1 UNK         0.0771 
    129 H129       37.1461   32.5549    4.4169 H         1 UNK         0.0771 
    130 H130       33.1185   31.2580    4.4818 H         1 UNK         0.2980 
    131 H131       32.2975   29.3893    3.8306 H         1 UNK         0.0545 
    132 H132       34.1102   27.2447    1.4360 H         1 UNK         0.3459 
    133 H133       33.0023   26.9819    2.7656 H         1 UNK         0.3459 
    134 H134       34.3052   27.6697    5.3643 H         1 UNK         0.0616 
    135 H135       33.1074   28.6042    6.2091 H         1 UNK         0.0616 
    136 H136       33.2677   25.0306    5.9761 H         1 UNK         0.0634 
    137 H137       33.9768   25.5366    4.4587 H         1 UNK         0.0634 
@<TRIPOS>BOND
     1    1    2 1    
     2    1   72 1    
     3    1   73 1    
     4    1   74 1    
     5    2    3 2    
     6    2    4 am   BACKBONE|DICT|INTERRES
     7    4    5 1    
     8    4   75 1    
     9    5    6 1    
    10    5   35 1    
    11    5   76 1    
    12    6    7 1    
    13    6   77 1    
    14    6   78 1    
    15    7    8 1    
    16    8    9 1    
    17    8   79 1    
    18    8   80 1    
    19    9   10 ar   
    20    9   14 ar   
    21   10   11 ar   
    22   10   81 1    
    23   11   12 ar   
    24   11   71 1    
    25   12   13 ar   
    26   12   82 1    
    27   13   14 ar   
    28   13   15 1    
    29   14   83 1    
    30   15   16 1    
    31   15   84 1    
    32   15   85 1    
    33   16   17 1    
    34   17   18 1    
    35   17   86 1    
    36   17   87 1    
    37   18   19 1    
    38   18   37 1    
    39   18   88 1    
    40   19   20 am   BACKBONE|DICT|INTERRES
    41   19   89 1    
    42   20   21 2    
    43   20   22 1    
    44   22   23 1    
    45   22   24 1    
    46   22   90 1    
    47   23   91 1    
    48   23   92 1    
    49   23   93 1    
    50   24   25 am   BACKBONE|DICT|INTERRES
    51   24   94 1    
    52   25   26 2    
    53   25   27 1    
    54   27   28 1    
    55   27   29 1    
    56   27   95 1    
    57   28   96 1    
    58   28   97 1    
    59   28   98 1    
    60   29   30 am   BACKBONE|DICT|INTERRES
    61   29   99 1    
    62   30   31 2    
    63   30   32 1    
    64   32   33 1    
    65   32   34 1    
    66   32  100 1    
    67   33  101 1    
    68   33  102 1    
    69   33  103 1    
    70   34   35 am   BACKBONE|DICT|INTERRES
    71   34  104 1    
    72   35   36 2    
    73   37   38 2    
    74   37   39 am   BACKBONE|DICT|INTERRES
    75   39   40 1    
    76   39  105 1    
    77   40   41 1    
    78   40   42 1    
    79   40  106 1    
    80   41  107 1    
    81   41  108 1    
    82   41  109 1    
    83   42   43 2    
    84   42   44 am   BACKBONE|DICT|INTERRES
    85   44   45 1    
    86   44  110 1    
    87   45   46 1    
    88   45   47 1    
    89   45  111 1    
    90   46  112 1    
    91   46  113 1    
    92   46  114 1    
    93   47   48 2    
    94   47   49 am   BACKBONE|DICT|INTERRES
    95   49   50 1    
    96   49  115 1    
    97   50   51 1    
    98   50   52 1    
    99   50  116 1    
   100   51  117 1    
   101   51  118 1    
   102   51  119 1    
   103   52   53 2    
   104   52   54 am   BACKBONE|DICT|INTERRES
   105   54   55 1    
   106   54  120 1    
   107   55   56 1    
   108   55   57 1    
   109   55  121 1    
   110   56  122 1    
   111   56  123 1    
   112   56  124 1    
   113   57   58 2    
   114   57   59 am   BACKBONE|DICT|INTERRES
   115   59   60 1    
   116   59  125 1    
   117   60   61 1    
   118   60   62 1    
   119   60  126 1    
   120   61  127 1    
   121   61  128 1    
   122   61  129 1    
   123   62   63 2    
   124   62   64 am   BACKBONE|DICT|INTERRES
   125   64   65 1    
   126   64  130 1    
   127   65   66 1    
   128   65   69 1    
   129   65  131 1    
   130   66   67 am   BACKBONE|DICT|INTERRES
   131   66   68 2    
   132   67  132 1    
   133   67  133 1    
   134   69   70 1    
   135   69  134 1    
   136   69  135 1    
   137   70   71 1    
   138   71  136 1    
   139   71  137 1    
@<TRIPOS>SUBSTRUCTURE
     1 UNK         1 GROUP             0       ****    0 ROOT    
