@<TRIPOS>MOLECULE
3R136
137   139    1
SMALL
USER_CHARGES


@<TRIPOS>ATOM
      1 CA         26.6210   20.1951   -1.1375 C.3       0 UNK        -0.1979 
      2 C          27.4558   21.4425   -0.8855 C.2       0 UNK         0.4864 
      3 O          27.0158   22.3203   -0.1431 O.2       0 UNK        -0.5359 
      4 N          28.6516   21.5061   -1.4931 N.am      1 UNK        -0.4318 
      5 CA         29.6224   22.6104   -1.4638 C.3       1 UNK         0.0824 
      6 C6         29.9646   23.0872   -0.0241 C.3       12 UNK        -0.0944 
      7 S7         31.5433   23.9981    0.0932 S.3       12 UNK        -0.2672 
      8 C8         32.2209   23.3715    1.6636 C.3       12 UNK         0.0333 
      9 C9         31.4101   23.8491    2.8606 C.ar      12 UNK        -0.0807 
     10 C10        31.6815   25.0892    3.4462 C.ar      12 UNK        -0.0894 
     11 C11        30.9419   25.5311    4.5472 C.ar      12 UNK        -0.0804 
     12 C12        29.9279   24.7199    5.0676 C.ar      12 UNK        -0.0824 
     13 C13        29.6256   23.4919    4.4697 C.ar      12 UNK        -0.0762 
     14 C14        30.3847   23.0540    3.3811 C.ar      12 UNK        -0.0782 
     15 C15        28.4689   22.6394    4.9755 C.3       12 UNK         0.0230 
     16 S16        27.0408   22.6981    3.8376 S.3       12 UNK        -0.2608 
     17 C17        26.1965   24.2373    4.3425 C.3       12 UNK        -0.0989 
     18 CA         26.7569   25.4985    3.6328 C.3       5 UNK         0.0716 
     19 N          26.6955   25.4547    2.1709 N.am      5 UNK        -0.4135 
     20 C          25.6177   25.5779    1.3875 C.2       4 UNK         0.5031 
     21 O          24.4618   25.6204    1.8129 O.2       4 UNK        -0.5229 
     22 CA         25.8932   25.7256   -0.1274 C.3       4 UNK         0.0329 
     23 CB         24.8168   26.5737   -0.8370 C.3       4 UNK        -0.2001 
     24 N          27.2387   26.2374   -0.4477 N.am      4 UNK        -0.4303 
     25 C          27.7881   27.3953   -0.0364 C.2       3 UNK         0.5044 
     26 O          27.1998   28.2033    0.6805 O.2       3 UNK        -0.5152 
     27 CA         29.2520   27.6881   -0.4201 C.3       3 UNK         0.0319 
     28 CB         30.1572   27.5667    0.8186 C.3       3 UNK        -0.2001 
     29 N          29.7721   26.8047   -1.4626 N.am      3 UNK        -0.4354 
     30 C          29.4737   26.8870   -2.7676 C.2       2 UNK         0.4964 
     31 O          28.7949   27.7869   -3.2618 O.2       2 UNK        -0.5047 
     32 CA         29.9937   25.7475   -3.6661 C.3       2 UNK         0.0288 
     33 CB         31.3179   26.1491   -4.3356 C.3       2 UNK        -0.2113 
     34 N          30.1806   24.4857   -2.9386 N.am      2 UNK        -0.4145 
     35 C          29.1900   23.7860   -2.3657 C.2       1 UNK         0.5006 
     36 O          28.0009   24.0902   -2.4819 O.2       1 UNK        -0.5103 
     37 C          26.2700   26.8302    4.2523 C.2       5 UNK         0.5055 
     38 O          25.9079   26.8561    5.4308 O.2       5 UNK        -0.5220 
     39 N          26.3467   27.9300    3.4888 N.am      6 UNK        -0.4450 
     40 CA         26.4368   29.2871    4.0300 C.3       6 UNK         0.0367 
     41 CB         25.8895   30.2805    2.9905 C.3       6 UNK        -0.1929 
     42 C          27.9118   29.5876    4.3553 C.2       6 UNK         0.5070 
     43 O          28.7886   28.7960    4.0020 O.2       6 UNK        -0.5237 
     44 N          28.1770   30.7276    5.0095 N.am      7 UNK        -0.4739 
     45 CA         29.5403   31.1771    5.3227 C.3       7 UNK         0.0276 
     46 CB         29.5010   32.4271    6.2162 C.3       7 UNK        -0.1927 
     47 C          30.3803   31.4195    4.0569 C.2       7 UNK         0.5013 
     48 O          31.4783   30.8672    3.9407 O.2       7 UNK        -0.5193 
     49 N          29.7996   32.1984    3.1280 N.am      8 UNK        -0.4253 
     50 CA         30.2225   32.5193    1.7559 C.3       8 UNK         0.0242 
     51 CB         30.1541   31.2620    0.8658 C.3       8 UNK        -0.2000 
     52 C          31.5929   33.2097    1.6290 C.2       8 UNK         0.4948 
     53 O          31.6779   34.3038    1.0712 O.2       8 UNK        -0.5275 
     54 N          32.6219   32.5366    2.1424 N.am      9 UNK        -0.4246 
     55 CA         34.0472   32.8563    2.1585 C.3       9 UNK         0.0261 
     56 CB         34.6005   33.1643    0.7513 C.3       9 UNK        -0.1959 
     57 C          34.7876   31.6556    2.7610 C.2       9 UNK         0.5033 
     58 O          35.6739   31.8458    3.5936 O.2       9 UNK        -0.5390 
     59 N          34.3731   30.4419    2.3595 N.am      10 UNK        -0.4215 
     60 CA         34.9134   29.1456    2.7821 C.3       10 UNK         0.0240 
     61 CB         34.1335   28.0226    2.0773 C.3       10 UNK        -0.1982 
     62 C          34.9180   28.9152    4.3034 C.2       10 UNK         0.4970 
     63 O          35.8694   28.3179    4.8088 O.2       10 UNK        -0.4916 
     64 N          33.8811   29.4040    4.9943 N.am      11 UNK        -0.4279 
     65 CA         33.7695   29.3926    6.4615 C.3       11 UNK         0.1003 
     66 C          33.8134   30.8294    7.0609 C.2       11 UNK         0.5709 
     67 N          34.3055   31.8350    6.3449 N.am      11 UNK        -0.7358 
     68 O          33.4110   31.0422    8.2023 O.2       11 UNK        -0.4999 
     69 C69        32.5379   28.5805    6.9479 C.3       12 UNK        -0.0954 
     70 S70        32.5385   26.8438    6.3867 S.3       12 UNK        -0.2268 
     71 C71        31.2101   26.9014    5.1489 C.3       12 UNK         0.0203 
     72 H72        25.6734   20.4672   -1.6015 H         1 UNK         0.0888 
     73 H73        27.1286   19.4871   -1.7924 H         1 UNK         0.0888 
     74 H74        26.4068   19.6917   -0.1950 H         1 UNK         0.0888 
     75 H75        28.9157   20.7394   -2.0964 H         1 UNK         0.3017 
     76 H76        30.5288   22.1865   -1.8998 H         1 UNK         0.0873 
     77 H77        29.1712   23.7090    0.3947 H         1 UNK         0.0745 
     78 H78        30.0298   22.2122    0.6224 H         1 UNK         0.0745 
     79 H79        33.2526   23.7130    1.7606 H         1 UNK         0.0705 
     80 H80        32.2645   22.2816    1.6372 H         1 UNK         0.0705 
     81 H81        32.4642   25.7141    3.0401 H         1 UNK         0.1334 
     82 H82        29.3473   25.0646    5.9126 H         1 UNK         0.1417 
     83 H83        30.1580   22.0987    2.9284 H         1 UNK         0.1562 
     84 H84        28.1638   22.9434    5.9779 H         1 UNK         0.0748 
     85 H85        28.8024   21.6043    5.0627 H         1 UNK         0.0748 
     86 H86        26.2786   24.3252    5.4273 H         1 UNK         0.0940 
     87 H87        25.1311   24.1329    4.1314 H         1 UNK         0.0940 
     88 H88        27.8239   25.5280    3.8299 H         1 UNK         0.0703 
     89 H89        27.5904   25.3994    1.7092 H         1 UNK         0.3081 
     90 H90        25.8461   24.7183   -0.5427 H         1 UNK         0.0719 
     91 H91        24.7643   27.5834   -0.4282 H         1 UNK         0.0809 
     92 H92        25.0169   26.6534   -1.9055 H         1 UNK         0.0809 
     93 H93        23.8284   26.1261   -0.7269 H         1 UNK         0.0809 
     94 H94        27.7802   25.6357   -1.0579 H         1 UNK         0.2990 
     95 H95        29.2970   28.7176   -0.7813 H         1 UNK         0.0690 
     96 H96        31.1909   27.8183    0.5823 H         1 UNK         0.0788 
     97 H97        30.1435   26.5590    1.2357 H         1 UNK         0.0788 
     98 H98        29.8337   28.2450    1.6089 H         1 UNK         0.0788 
     99 H99        30.3581   26.0416   -1.1530 H         1 UNK         0.2993 
    100 H100       29.2475   25.5800   -4.4462 H         1 UNK         0.0949 
    101 H101       32.1085   26.3141   -3.6022 H         1 UNK         0.0767 
    102 H102       31.6591   25.3828   -5.0322 H         1 UNK         0.0767 
    103 H103       31.2026   27.0730   -4.9043 H         1 UNK         0.0767 
    104 H104       31.1349   24.1881   -2.7888 H         1 UNK         0.3013 
    105 H105       26.6817   27.8351    2.5336 H         1 UNK         0.3121 
    106 H106       25.8475   29.3682    4.9457 H         1 UNK         0.0774 
    107 H107       25.8331   31.2889    3.4011 H         1 UNK         0.0815 
    108 H108       24.8842   30.0060    2.6706 H         1 UNK         0.0815 
    109 H109       26.5212   30.3274    2.1026 H         1 UNK         0.0815 
    110 H110       27.4143   31.3308    5.2835 H         1 UNK         0.2987 
    111 H111       30.0218   30.3788    5.8860 H         1 UNK         0.0949 
    112 H112       28.9960   32.2220    7.1603 H         1 UNK         0.0806 
    113 H113       30.5108   32.7621    6.4589 H         1 UNK         0.0806 
    114 H114       28.9869   33.2601    5.7356 H         1 UNK         0.0806 
    115 H115       28.9064   32.5938    3.3852 H         1 UNK         0.3010 
    116 H116       29.4831   33.2264    1.3759 H         1 UNK         0.0829 
    117 H117       29.1528   30.8302    0.8689 H         1 UNK         0.0813 
    118 H118       30.4019   31.4998   -0.1695 H         1 UNK         0.0813 
    119 H119       30.8474   30.4890    1.1976 H         1 UNK         0.0813 
    120 H120       32.3592   31.7286    2.7087 H         1 UNK         0.3038 
    121 H121       34.1994   33.7203    2.8079 H         1 UNK         0.0769 
    122 H122       35.6852   33.2784    0.7757 H         1 UNK         0.0811 
    123 H123       34.1960   34.0947    0.3538 H         1 UNK         0.0811 
    124 H124       34.3711   32.3692    0.0411 H         1 UNK         0.0811 
    125 H125       33.6496   30.4074    1.6566 H         1 UNK         0.3204 
    126 H126       35.9512   29.1061    2.4452 H         1 UNK         0.0748 
    127 H127       34.5215   27.0422    2.3576 H         1 UNK         0.0771 
    128 H128       33.0750   28.0430    2.3399 H         1 UNK         0.0771 
    129 H129       34.2126   28.1007    0.9928 H         1 UNK         0.0771 
    130 H130       33.1364   29.8912    4.5055 H         1 UNK         0.2980 
    131 H131       34.6475   28.9054    6.8880 H         1 UNK         0.0545 
    132 H132       34.3336   32.7555    6.7528 H         1 UNK         0.3459 
    133 H133       34.7092   31.6776    5.4296 H         1 UNK         0.3459 
    134 H134       31.6161   29.0649    6.6329 H         1 UNK         0.0616 
    135 H135       32.5063   28.5583    8.0385 H         1 UNK         0.0616 
    136 H136       30.3027   27.2838    5.6184 H         1 UNK         0.0634 
    137 H137       31.4724   27.6122    4.3633 H         1 UNK         0.0634 
@<TRIPOS>BOND
     1    1    2 1    
     2    1   72 1    
     3    1   73 1    
     4    1   74 1    
     5    2    3 2    
     6    2    4 am   BACKBONE|DICT|INTERRES
     7    4    5 1    
     8    4   75 1    
     9    5    6 1    
    10    5   35 1    
    11    5   76 1    
    12    6    7 1    
    13    6   77 1    
    14    6   78 1    
    15    7    8 1    
    16    8    9 1    
    17    8   79 1    
    18    8   80 1    
    19    9   10 ar   
    20    9   14 ar   
    21   10   11 ar   
    22   10   81 1    
    23   11   12 ar   
    24   11   71 1    
    25   12   13 ar   
    26   12   82 1    
    27   13   14 ar   
    28   13   15 1    
    29   14   83 1    
    30   15   16 1    
    31   15   84 1    
    32   15   85 1    
    33   16   17 1    
    34   17   18 1    
    35   17   86 1    
    36   17   87 1    
    37   18   19 1    
    38   18   37 1    
    39   18   88 1    
    40   19   20 am   BACKBONE|DICT|INTERRES
    41   19   89 1    
    42   20   21 2    
    43   20   22 1    
    44   22   23 1    
    45   22   24 1    
    46   22   90 1    
    47   23   91 1    
    48   23   92 1    
    49   23   93 1    
    50   24   25 am   BACKBONE|DICT|INTERRES
    51   24   94 1    
    52   25   26 2    
    53   25   27 1    
    54   27   28 1    
    55   27   29 1    
    56   27   95 1    
    57   28   96 1    
    58   28   97 1    
    59   28   98 1    
    60   29   30 am   BACKBONE|DICT|INTERRES
    61   29   99 1    
    62   30   31 2    
    63   30   32 1    
    64   32   33 1    
    65   32   34 1    
    66   32  100 1    
    67   33  101 1    
    68   33  102 1    
    69   33  103 1    
    70   34   35 am   BACKBONE|DICT|INTERRES
    71   34  104 1    
    72   35   36 2    
    73   37   38 2    
    74   37   39 am   BACKBONE|DICT|INTERRES
    75   39   40 1    
    76   39  105 1    
    77   40   41 1    
    78   40   42 1    
    79   40  106 1    
    80   41  107 1    
    81   41  108 1    
    82   41  109 1    
    83   42   43 2    
    84   42   44 am   BACKBONE|DICT|INTERRES
    85   44   45 1    
    86   44  110 1    
    87   45   46 1    
    88   45   47 1    
    89   45  111 1    
    90   46  112 1    
    91   46  113 1    
    92   46  114 1    
    93   47   48 2    
    94   47   49 am   BACKBONE|DICT|INTERRES
    95   49   50 1    
    96   49  115 1    
    97   50   51 1    
    98   50   52 1    
    99   50  116 1    
   100   51  117 1    
   101   51  118 1    
   102   51  119 1    
   103   52   53 2    
   104   52   54 am   BACKBONE|DICT|INTERRES
   105   54   55 1    
   106   54  120 1    
   107   55   56 1    
   108   55   57 1    
   109   55  121 1    
   110   56  122 1    
   111   56  123 1    
   112   56  124 1    
   113   57   58 2    
   114   57   59 am   BACKBONE|DICT|INTERRES
   115   59   60 1    
   116   59  125 1    
   117   60   61 1    
   118   60   62 1    
   119   60  126 1    
   120   61  127 1    
   121   61  128 1    
   122   61  129 1    
   123   62   63 2    
   124   62   64 am   BACKBONE|DICT|INTERRES
   125   64   65 1    
   126   64  130 1    
   127   65   66 1    
   128   65   69 1    
   129   65  131 1    
   130   66   67 am   BACKBONE|DICT|INTERRES
   131   66   68 2    
   132   67  132 1    
   133   67  133 1    
   134   69   70 1    
   135   69  134 1    
   136   69  135 1    
   137   70   71 1    
   138   71  136 1    
   139   71  137 1    
@<TRIPOS>SUBSTRUCTURE
     1 UNK         1 GROUP             0       ****    0 ROOT    
