@<TRIPOS>MOLECULE
3R136
137   139    1
SMALL
USER_CHARGES


@<TRIPOS>ATOM
      1 CA         28.2139   22.0360    2.6603 C.3       0 UNK        -0.1979 
      2 C          28.3140   21.9281    1.1454 C.2       0 UNK         0.4864 
      3 O          28.4798   20.8252    0.6224 O.2       0 UNK        -0.5359 
      4 N          28.2208   23.0631    0.4462 N.am      1 UNK        -0.4318 
      5 CA         28.3018   23.1848   -1.0090 C.3       1 UNK         0.0824 
      6 C6         29.7100   23.6326   -1.5095 C.3       12 UNK        -0.0944 
      7 S7         30.5167   24.9189   -0.4864 S.3       12 UNK        -0.2672 
      8 C8         31.7576   23.9021    0.3848 C.3       12 UNK         0.0333 
      9 C9         32.1608   24.5087    1.7203 C.ar      12 UNK        -0.0807 
     10 C10        33.1007   25.5424    1.7726 C.ar      12 UNK        -0.0894 
     11 C11        33.4655   26.1105    2.9981 C.ar      12 UNK        -0.0804 
     12 C12        32.8866   25.6274    4.1749 C.ar      12 UNK        -0.0824 
     13 C13        31.9620   24.5809    4.1394 C.ar      12 UNK        -0.0762 
     14 C14        31.6041   24.0237    2.9085 C.ar      12 UNK        -0.0782 
     15 C15        31.3563   24.0583    5.4356 C.3       12 UNK         0.0230 
     16 S16        29.5764   24.4221    5.5794 S.3       12 UNK        -0.2608 
     17 C17        29.5237   26.2327    5.3372 C.3       12 UNK        -0.0989 
     18 CA         28.9787   26.6002    3.9355 C.3       5 UNK         0.0716 
     19 N          27.6246   26.0700    3.7378 N.am      5 UNK        -0.4135 
     20 C          27.1310   25.6844    2.5583 C.2       4 UNK         0.5031 
     21 O          27.7810   25.6920    1.5119 O.2       4 UNK        -0.5229 
     22 CA         25.6676   25.2029    2.5113 C.3       4 UNK         0.0329 
     23 CB         24.8558   25.4763    3.7985 C.3       4 UNK        -0.2001 
     24 N          24.9977   25.7595    1.3323 N.am      4 UNK        -0.4303 
     25 C          24.8541   27.0633    1.0482 C.2       3 UNK         0.5044 
     26 O          25.1452   27.9769    1.8224 O.2       3 UNK        -0.5152 
     27 CA         24.4101   27.3779   -0.3826 C.3       3 UNK         0.0319 
     28 CB         24.2832   28.8888   -0.6675 C.3       3 UNK        -0.2001 
     29 N          25.3829   26.7611   -1.2817 N.am      3 UNK        -0.4354 
     30 C          25.1304   26.3204   -2.5167 C.2       2 UNK         0.4964 
     31 O          24.0432   26.4527   -3.0802 O.2       2 UNK        -0.5047 
     32 CA         26.2749   25.6020   -3.2588 C.3       2 UNK         0.0288 
     33 CB         26.9624   26.5657   -4.2404 C.3       2 UNK        -0.2113 
     34 N          27.3024   24.9552   -2.4260 N.am      2 UNK        -0.4145 
     35 C          27.0887   23.9973   -1.5101 C.2       1 UNK         0.5006 
     36 O          25.9659   23.6983   -1.0942 O.2       1 UNK        -0.5103 
     37 C          29.0476   28.1240    3.6859 C.2       5 UNK         0.5055 
     38 O          30.1477   28.6691    3.5650 O.2       5 UNK        -0.5220 
     39 N          27.8891   28.7996    3.6091 N.am      6 UNK        -0.4450 
     40 CA         27.7810   30.2478    3.4090 C.3       6 UNK         0.0367 
     41 CB         26.3433   30.7064    3.6976 C.3       6 UNK        -0.1929 
     42 C          28.2259   30.7075    2.0111 C.2       6 UNK         0.5070 
     43 O          28.6808   31.8432    1.8770 O.2       6 UNK        -0.5237 
     44 N          28.1455   29.8144    1.0122 N.am      7 UNK        -0.4739 
     45 CA         28.5890   30.0386   -0.3715 C.3       7 UNK         0.0276 
     46 CB         28.3059   28.7823   -1.2092 C.3       7 UNK        -0.1927 
     47 C          30.0701   30.4311   -0.5139 C.2       7 UNK         0.5013 
     48 O          30.4164   31.1414   -1.4583 O.2       7 UNK        -0.5193 
     49 N          30.9021   29.9740    0.4283 N.am      8 UNK        -0.4253 
     50 CA         32.3241   30.2955    0.5273 C.3       8 UNK         0.0242 
     51 CB         33.1306   29.0117    0.2834 C.3       8 UNK        -0.2000 
     52 C          32.6524   30.9687    1.8733 C.2       8 UNK         0.4948 
     53 O          33.8054   30.9271    2.3042 O.2       8 UNK        -0.5275 
     54 N          31.6403   31.5902    2.5027 N.am      9 UNK        -0.4246 
     55 CA         31.7042   32.3803    3.7377 C.3       9 UNK         0.0261 
     56 CB         32.4233   33.7203    3.4730 C.3       9 UNK        -0.1959 
     57 C          32.2887   31.6191    4.9443 C.2       9 UNK         0.5033 
     58 O          33.0907   32.1820    5.6921 O.2       9 UNK        -0.5390 
     59 N          31.8951   30.3475    5.1078 N.am      10 UNK        -0.4215 
     60 CA         32.2380   29.4164    6.1948 C.3       10 UNK         0.0240 
     61 CB         31.7550   29.9460    7.5596 C.3       10 UNK        -0.1982 
     62 C          33.7084   28.9575    6.2646 C.2       10 UNK         0.4970 
     63 O          33.9458   27.8718    6.7927 O.2       10 UNK        -0.4916 
     64 N          34.6443   29.7593    5.7380 N.am      11 UNK        -0.4279 
     65 CA         36.0936   29.5171    5.5939 C.3       11 UNK         0.1003 
     66 C          36.8728   29.0795    6.8738 C.2       11 UNK         0.5709 
     67 N          36.3730   29.3555    8.0724 N.am      11 UNK        -0.7358 
     68 O          37.9682   28.5283    6.7884 O.2       11 UNK        -0.4999 
     69 C69        36.4642   28.7295    4.2995 C.3       12 UNK        -0.0954 
     70 S70        35.8263   27.0217    4.1933 S.3       12 UNK        -0.2268 
     71 C71        34.4369   27.2827    3.0462 C.3       12 UNK         0.0203 
     72 H72        28.3821   23.0548    3.0063 H         1 UNK         0.0888 
     73 H73        27.2278   21.7168    2.9959 H         1 UNK         0.0888 
     74 H74        28.9583   21.3972    3.1350 H         1 UNK         0.0888 
     75 H75        28.0901   23.9551    0.9192 H         1 UNK         0.3017 
     76 H76        28.1260   22.2002   -1.4477 H         1 UNK         0.0873 
     77 H77        29.6952   23.9603   -2.5495 H         1 UNK         0.0745 
     78 H78        30.3581   22.7551   -1.5253 H         1 UNK         0.0745 
     79 H79        32.6350   23.7829   -0.2525 H         1 UNK         0.0705 
     80 H80        31.3620   22.8987    0.5502 H         1 UNK         0.0705 
     81 H81        33.5325   25.9136    0.8532 H         1 UNK         0.1334 
     82 H82        33.1608   26.0685    5.1226 H         1 UNK         0.1417 
     83 H83        30.8849   23.2179    2.8783 H         1 UNK         0.1562 
     84 H84        31.8717   24.4778    6.3013 H         1 UNK         0.0748 
     85 H85        31.5010   22.9784    5.4894 H         1 UNK         0.0748 
     86 H86        30.5245   26.6376    5.4832 H         1 UNK         0.0940 
     87 H87        28.9041   26.6698    6.1224 H         1 UNK         0.0940 
     88 H88        29.6435   26.1490    3.1955 H         1 UNK         0.0703 
     89 H89        27.0423   26.0013    4.5596 H         1 UNK         0.3081 
     90 H90        25.7050   24.1228    2.3626 H         1 UNK         0.0719 
     91 H91        24.8286   26.5358    4.0562 H         1 UNK         0.0809 
     92 H92        23.8242   25.1431    3.6841 H         1 UNK         0.0809 
     93 H93        25.2669   24.9342    4.6510 H         1 UNK         0.0809 
     94 H94        24.7961   25.0949    0.5956 H         1 UNK         0.2990 
     95 H95        23.4331   26.9116   -0.5270 H         1 UNK         0.0690 
     96 H96        23.9870   29.0768   -1.6995 H         1 UNK         0.0788 
     97 H97        25.2174   29.4197   -0.4839 H         1 UNK         0.0788 
     98 H98        23.5253   29.3395   -0.0258 H         1 UNK         0.0788 
     99 H99        26.2918   26.5689   -0.8813 H         1 UNK         0.2993 
    100 H100       25.8050   24.8086   -3.8440 H         1 UNK         0.0949 
    101 H101       27.6743   26.0425   -4.8792 H         1 UNK         0.0767 
    102 H102       26.2335   27.0428   -4.8974 H         1 UNK         0.0767 
    103 H103       27.4978   27.3590   -3.7191 H         1 UNK         0.0767 
    104 H104       28.2607   25.1608   -2.6694 H         1 UNK         0.3013 
    105 H105       27.0199   28.2868    3.6594 H         1 UNK         0.3121 
    106 H106       28.4397   30.7320    4.1334 H         1 UNK         0.0774 
    107 H107       26.2591   31.7911    3.6183 H         1 UNK         0.0815 
    108 H108       25.6303   30.2755    2.9945 H         1 UNK         0.0815 
    109 H109       26.0314   30.4316    4.7052 H         1 UNK         0.0815 
    110 H110       27.7462   28.9102    1.2227 H         1 UNK         0.2987 
    111 H111       28.0012   30.8650   -0.7766 H         1 UNK         0.0949 
    112 H112       28.7212   27.8825   -0.7522 H         1 UNK         0.0806 
    113 H113       27.2376   28.6392   -1.3425 H         1 UNK         0.0806 
    114 H114       28.7371   28.8698   -2.2076 H         1 UNK         0.0806 
    115 H115       30.5194   29.4030    1.1714 H         1 UNK         0.3010 
    116 H116       32.6076   31.0193   -0.2394 H         1 UNK         0.0829 
    117 H117       32.9666   28.6301   -0.7244 H         1 UNK         0.0813 
    118 H118       34.2024   29.1804    0.3946 H         1 UNK         0.0813 
    119 H119       32.8322   28.2336    0.9826 H         1 UNK         0.0813 
    120 H120       30.7275   31.5742    2.0591 H         1 UNK         0.3038 
    121 H121       30.6711   32.6102    4.0026 H         1 UNK         0.0769 
    122 H122       32.3775   34.3706    4.3475 H         1 UNK         0.0811 
    123 H123       31.9632   34.2609    2.6458 H         1 UNK         0.0811 
    124 H124       33.4767   33.5716    3.2324 H         1 UNK         0.0811 
    125 H125       31.2821   29.9442    4.4010 H         1 UNK         0.3204 
    126 H126       31.6632   28.5171    5.9800 H         1 UNK         0.0748 
    127 H127       31.9051   29.2004    8.3416 H         1 UNK         0.0771 
    128 H128       32.2928   30.8445    7.8632 H         1 UNK         0.0771 
    129 H129       30.6910   30.1820    7.5386 H         1 UNK         0.0771 
    130 H130       34.3235   30.6676    5.4196 H         1 UNK         0.2980 
    131 H131       36.4878   30.5198    5.4260 H         1 UNK         0.0545 
    132 H132       36.8863   29.0845    8.8960 H         1 UNK         0.3459 
    133 H133       35.4755   29.8040    8.1587 H         1 UNK         0.3459 
    134 H134       36.1120   29.2894    3.4315 H         1 UNK         0.0616 
    135 H135       37.5479   28.6869    4.1803 H         1 UNK         0.0616 
    136 H136       34.8551   27.4795    2.0588 H         1 UNK         0.0634 
    137 H137       33.8828   28.1760    3.3378 H         1 UNK         0.0634 
@<TRIPOS>BOND
     1    1    2 1    
     2    1   72 1    
     3    1   73 1    
     4    1   74 1    
     5    2    3 2    
     6    2    4 am   BACKBONE|DICT|INTERRES
     7    4    5 1    
     8    4   75 1    
     9    5    6 1    
    10    5   35 1    
    11    5   76 1    
    12    6    7 1    
    13    6   77 1    
    14    6   78 1    
    15    7    8 1    
    16    8    9 1    
    17    8   79 1    
    18    8   80 1    
    19    9   10 ar   
    20    9   14 ar   
    21   10   11 ar   
    22   10   81 1    
    23   11   12 ar   
    24   11   71 1    
    25   12   13 ar   
    26   12   82 1    
    27   13   14 ar   
    28   13   15 1    
    29   14   83 1    
    30   15   16 1    
    31   15   84 1    
    32   15   85 1    
    33   16   17 1    
    34   17   18 1    
    35   17   86 1    
    36   17   87 1    
    37   18   19 1    
    38   18   37 1    
    39   18   88 1    
    40   19   20 am   BACKBONE|DICT|INTERRES
    41   19   89 1    
    42   20   21 2    
    43   20   22 1    
    44   22   23 1    
    45   22   24 1    
    46   22   90 1    
    47   23   91 1    
    48   23   92 1    
    49   23   93 1    
    50   24   25 am   BACKBONE|DICT|INTERRES
    51   24   94 1    
    52   25   26 2    
    53   25   27 1    
    54   27   28 1    
    55   27   29 1    
    56   27   95 1    
    57   28   96 1    
    58   28   97 1    
    59   28   98 1    
    60   29   30 am   BACKBONE|DICT|INTERRES
    61   29   99 1    
    62   30   31 2    
    63   30   32 1    
    64   32   33 1    
    65   32   34 1    
    66   32  100 1    
    67   33  101 1    
    68   33  102 1    
    69   33  103 1    
    70   34   35 am   BACKBONE|DICT|INTERRES
    71   34  104 1    
    72   35   36 2    
    73   37   38 2    
    74   37   39 am   BACKBONE|DICT|INTERRES
    75   39   40 1    
    76   39  105 1    
    77   40   41 1    
    78   40   42 1    
    79   40  106 1    
    80   41  107 1    
    81   41  108 1    
    82   41  109 1    
    83   42   43 2    
    84   42   44 am   BACKBONE|DICT|INTERRES
    85   44   45 1    
    86   44  110 1    
    87   45   46 1    
    88   45   47 1    
    89   45  111 1    
    90   46  112 1    
    91   46  113 1    
    92   46  114 1    
    93   47   48 2    
    94   47   49 am   BACKBONE|DICT|INTERRES
    95   49   50 1    
    96   49  115 1    
    97   50   51 1    
    98   50   52 1    
    99   50  116 1    
   100   51  117 1    
   101   51  118 1    
   102   51  119 1    
   103   52   53 2    
   104   52   54 am   BACKBONE|DICT|INTERRES
   105   54   55 1    
   106   54  120 1    
   107   55   56 1    
   108   55   57 1    
   109   55  121 1    
   110   56  122 1    
   111   56  123 1    
   112   56  124 1    
   113   57   58 2    
   114   57   59 am   BACKBONE|DICT|INTERRES
   115   59   60 1    
   116   59  125 1    
   117   60   61 1    
   118   60   62 1    
   119   60  126 1    
   120   61  127 1    
   121   61  128 1    
   122   61  129 1    
   123   62   63 2    
   124   62   64 am   BACKBONE|DICT|INTERRES
   125   64   65 1    
   126   64  130 1    
   127   65   66 1    
   128   65   69 1    
   129   65  131 1    
   130   66   67 am   BACKBONE|DICT|INTERRES
   131   66   68 2    
   132   67  132 1    
   133   67  133 1    
   134   69   70 1    
   135   69  134 1    
   136   69  135 1    
   137   70   71 1    
   138   71  136 1    
   139   71  137 1    
@<TRIPOS>SUBSTRUCTURE
     1 UNK         1 GROUP             0       ****    0 ROOT    
