@<TRIPOS>MOLECULE
3R136
137   139    1
SMALL
USER_CHARGES


@<TRIPOS>ATOM
      1 CA         30.6431   20.2132   -1.9395 C.3       0 UNK        -0.1979 
      2 C          30.1728   21.5273   -1.3351 C.2       0 UNK         0.4864 
      3 O          29.5884   21.5243   -0.2506 O.2       0 UNK        -0.5359 
      4 N          30.4122   22.6467   -2.0337 N.am      1 UNK        -0.4318 
      5 CA         30.1104   24.0426   -1.6637 C.3       1 UNK         0.0824 
      6 C6         30.7818   24.5104   -0.3465 C.3       12 UNK        -0.0944 
      7 S7         32.6000   24.3287   -0.3656 S.3       12 UNK        -0.2672 
      8 C8         32.8862   23.0034    0.8519 C.3       12 UNK         0.0333 
      9 C9         32.5034   23.4168    2.2668 C.ar      12 UNK        -0.0807 
     10 C10        33.3727   24.1947    3.0382 C.ar      12 UNK        -0.0894 
     11 C11        33.0362   24.5624    4.3465 C.ar      12 UNK        -0.0804 
     12 C12        31.8168   24.1274    4.8801 C.ar      12 UNK        -0.0824 
     13 C13        30.9321   23.3636    4.1134 C.ar      12 UNK        -0.0762 
     14 C14        31.2858   23.0018    2.8122 C.ar      12 UNK        -0.0782 
     15 C15        29.6020   22.9126    4.6972 C.3       12 UNK         0.0230 
     16 S16        28.5478   24.3166    5.1774 S.3       12 UNK        -0.2608 
     17 C17        28.1315   25.0862    3.5684 C.3       12 UNK        -0.0989 
     18 CA         28.6900   26.5223    3.3606 C.3       5 UNK         0.0716 
     19 N          28.2554   27.0694    2.0671 N.am      5 UNK        -0.4135 
     20 C          28.5183   28.2968    1.5820 C.2       4 UNK         0.5031 
     21 O          29.1703   29.1562    2.1797 O.2       4 UNK        -0.5229 
     22 CA         27.9897   28.6426    0.1774 C.3       4 UNK         0.0329 
     23 CB         29.1207   28.5363   -0.8583 C.3       4 UNK        -0.2001 
     24 N          26.8592   27.8153   -0.2506 N.am      4 UNK        -0.4303 
     25 C          25.6182   27.9204    0.2490 C.2       3 UNK         0.5044 
     26 O          25.2886   28.7735    1.0721 O.2       3 UNK        -0.5152 
     27 CA         24.5564   26.9109   -0.2309 C.3       3 UNK         0.0319 
     28 CB         23.6006   27.5766   -1.2345 C.3       3 UNK        -0.2001 
     29 N          25.0851   25.6788   -0.8252 N.am      3 UNK        -0.4354 
     30 C          25.8872   24.7932   -0.2184 C.2       2 UNK         0.4964 
     31 O          26.3237   24.9393    0.9240 O.2       2 UNK        -0.5047 
     32 CA         26.3088   23.5506   -1.0251 C.3       2 UNK         0.0288 
     33 CB         25.6466   23.4354   -2.4181 C.3       2 UNK        -0.2113 
     34 N          27.7664   23.4642   -1.1473 N.am      2 UNK        -0.4145 
     35 C          28.6029   24.3823   -1.6519 C.2       1 UNK         0.5006 
     36 O          28.2313   25.4678   -2.1032 O.2       1 UNK        -0.5103 
     37 C          28.3083   27.4690    4.5188 C.2       5 UNK         0.5055 
     38 O          27.1208   27.6090    4.8218 O.2       5 UNK        -0.5220 
     39 N          29.3246   28.1126    5.1110 N.am      6 UNK        -0.4450 
     40 CA         29.2489   29.0836    6.2074 C.3       6 UNK         0.0367 
     41 CB         28.6847   28.4296    7.4866 C.3       6 UNK        -0.1929 
     42 C          28.5243   30.3985    5.8475 C.2       6 UNK         0.5070 
     43 O          28.1994   31.1671    6.7542 O.2       6 UNK        -0.5237 
     44 N          28.2861   30.6476    4.5529 N.am      7 UNK        -0.4739 
     45 CA         27.5521   31.8078    4.0416 C.3       7 UNK         0.0276 
     46 CB         26.3093   31.3120    3.2861 C.3       7 UNK        -0.1927 
     47 C          28.4092   32.6879    3.1210 C.2       7 UNK         0.5013 
     48 O          28.1277   33.8829    3.0166 O.2       7 UNK        -0.5193 
     49 N          29.4194   32.1025    2.4669 N.am      8 UNK        -0.4253 
     50 CA         30.3275   32.7826    1.5446 C.3       8 UNK         0.0242 
     51 CB         29.8798   32.5020    0.0947 C.3       8 UNK        -0.2000 
     52 C          31.7748   32.3628    1.8469 C.2       8 UNK         0.4948 
     53 O          32.0991   32.0902    3.0044 O.2       8 UNK        -0.5275 
     54 N          32.6267   32.3130    0.8113 N.am      9 UNK        -0.4246 
     55 CA         34.0518   31.9596    0.8902 C.3       9 UNK         0.0261 
     56 CB         34.6883   32.1090   -0.5011 C.3       9 UNK        -0.1959 
     57 C          34.3335   30.5567    1.4616 C.2       9 UNK         0.5033 
     58 O          35.4155   30.3309    2.0073 O.2       9 UNK        -0.5390 
     59 N          33.3512   29.6521    1.3639 N.am      10 UNK        -0.4215 
     60 CA         33.3272   28.3514    2.0268 C.3       10 UNK         0.0240 
     61 CB         32.2954   27.4579    1.3225 C.3       10 UNK        -0.1982 
     62 C          33.0398   28.5156    3.5308 C.2       10 UNK         0.4970 
     63 O          31.9245   28.2419    3.9774 O.2       10 UNK        -0.4916 
     64 N          34.0665   28.9781    4.2574 N.am      11 UNK        -0.4279 
     65 CA         34.1530   29.1612    5.7172 C.3       11 UNK         0.1003 
     66 C          33.0615   30.0513    6.3867 C.2       11 UNK         0.5709 
     67 N          32.3862   30.9373    5.6653 N.am      11 UNK        -0.7358 
     68 O          32.8507   29.9804    7.5953 O.2       11 UNK        -0.4999 
     69 C69        34.4894   27.8459    6.4870 C.3       12 UNK        -0.0954 
     70 S70        33.2365   26.5231    6.3760 S.3       12 UNK        -0.2268 
     71 C71        34.0193   25.4051    5.1589 C.3       12 UNK         0.0203 
     72 H72        31.3423   19.7208   -1.2642 H         1 UNK         0.0888 
     73 H73        29.7946   19.5479   -2.0967 H         1 UNK         0.0888 
     74 H74        31.1427   20.3593   -2.8970 H         1 UNK         0.0888 
     75 H75        30.8737   22.5534   -2.9281 H         1 UNK         0.3017 
     76 H76        30.5370   24.6435   -2.4688 H         1 UNK         0.0873 
     77 H77        30.3539   23.9838    0.5042 H         1 UNK         0.0745 
     78 H78        30.5707   25.5655   -0.1689 H         1 UNK         0.0745 
     79 H79        33.9425   22.7320    0.8288 H         1 UNK         0.0705 
     80 H80        32.3405   22.1084    0.5522 H         1 UNK         0.0705 
     81 H81        34.3148   24.5147    2.6141 H         1 UNK         0.1334 
     82 H82        31.5410   24.3889    5.8921 H         1 UNK         0.1417 
     83 H83        30.6128   22.3949    2.2205 H         1 UNK         0.1562 
     84 H84        29.7942   22.3001    5.5792 H         1 UNK         0.0748 
     85 H85        29.0556   22.2787    3.9968 H         1 UNK         0.0748 
     86 H86        27.0425   25.0999    3.4941 H         1 UNK         0.0940 
     87 H87        28.4732   24.4382    2.7596 H         1 UNK         0.0940 
     88 H88        29.7794   26.4491    3.3206 H         1 UNK         0.0703 
     89 H89        27.6585   26.4599    1.5198 H         1 UNK         0.3081 
     90 H90        27.6588   29.6831    0.2065 H         1 UNK         0.0719 
     91 H91        29.4802   27.5136   -0.9614 H         1 UNK         0.0809 
     92 H92        28.7927   28.8765   -1.8406 H         1 UNK         0.0809 
     93 H93        29.9771   29.1471   -0.5727 H         1 UNK         0.0809 
     94 H94        27.0533   27.0871   -0.9278 H         1 UNK         0.2990 
     95 H95        23.9782   26.6206    0.6487 H         1 UNK         0.0690 
     96 H96        22.7778   26.9131   -1.5014 H         1 UNK         0.0788 
     97 H97        24.1156   27.8622   -2.1527 H         1 UNK         0.0788 
     98 H98        23.1592   28.4815   -0.8139 H         1 UNK         0.0788 
     99 H99        24.8080   25.4848   -1.7767 H         1 UNK         0.2993 
    100 H100       25.9954   22.6883   -0.4346 H         1 UNK         0.0949 
    101 H101       24.5586   23.4147   -2.3406 H         1 UNK         0.0767 
    102 H102       25.9223   24.2590   -3.0780 H         1 UNK         0.0767 
    103 H103       25.9441   22.5102   -2.9121 H         1 UNK         0.0767 
    104 H104       28.2032   22.6363   -0.7457 H         1 UNK         0.3013 
    105 H105       30.2587   27.9999    4.7137 H         1 UNK         0.3121 
    106 H106       30.2792   29.3595    6.4203 H         1 UNK         0.0774 
    107 H107       28.7868   29.0960    8.3439 H         1 UNK         0.0815 
    108 H108       27.6258   28.1898    7.3871 H         1 UNK         0.0815 
    109 H109       29.2174   27.5099    7.7287 H         1 UNK         0.0815 
    110 H110       28.5988   29.9676    3.8654 H         1 UNK         0.2987 
    111 H111       27.2165   32.4417    4.8651 H         1 UNK         0.0949 
    112 H112       25.7109   32.1484    2.9228 H         1 UNK         0.0806 
    113 H113       25.6685   30.7071    3.9279 H         1 UNK         0.0806 
    114 H114       26.5817   30.7059    2.4219 H         1 UNK         0.0806 
    115 H115       29.5936   31.1131    2.6097 H         1 UNK         0.3010 
    116 H116       30.2896   33.8608    1.7132 H         1 UNK         0.0829 
    117 H117       29.9973   31.4513   -0.1682 H         1 UNK         0.0813 
    118 H118       28.8296   32.7590   -0.0465 H         1 UNK         0.0813 
    119 H119       30.4449   33.0954   -0.6247 H         1 UNK         0.0813 
    120 H120       32.2766   32.5584   -0.1037 H         1 UNK         0.3038 
    121 H121       34.5263   32.6774    1.5626 H         1 UNK         0.0769 
    122 H122       35.7544   31.8788   -0.4693 H         1 UNK         0.0811 
    123 H123       34.5917   33.1281   -0.8760 H         1 UNK         0.0811 
    124 H124       34.2320   31.4367   -1.2288 H         1 UNK         0.0811 
    125 H125       32.4904   29.9459    0.9281 H         1 UNK         0.3204 
    126 H126       34.3049   27.8761    1.9212 H         1 UNK         0.0748 
    127 H127       32.2089   26.4911    1.8188 H         1 UNK         0.0771 
    128 H128       31.3069   27.9093    1.3225 H         1 UNK         0.0771 
    129 H129       32.5770   27.2726    0.2863 H         1 UNK         0.0771 
    130 H130       34.8869   29.2713    3.7392 H         1 UNK         0.2980 
    131 H131       35.0431   29.7809    5.8299 H         1 UNK         0.0545 
    132 H132       32.5301   31.0490    4.6678 H         1 UNK         0.3459 
    133 H133       31.7171   31.5272    6.1304 H         1 UNK         0.3459 
    134 H134       35.4450   27.4569    6.1332 H         1 UNK         0.0616 
    135 H135       34.6532   28.0585    7.5447 H         1 UNK         0.0616 
    136 H136       34.6213   26.0033    4.4735 H         1 UNK         0.0634 
    137 H137       34.7093   24.7423    5.6821 H         1 UNK         0.0634 
@<TRIPOS>BOND
     1    1    2 1    
     2    1   72 1    
     3    1   73 1    
     4    1   74 1    
     5    2    3 2    
     6    2    4 am   BACKBONE|DICT|INTERRES
     7    4    5 1    
     8    4   75 1    
     9    5    6 1    
    10    5   35 1    
    11    5   76 1    
    12    6    7 1    
    13    6   77 1    
    14    6   78 1    
    15    7    8 1    
    16    8    9 1    
    17    8   79 1    
    18    8   80 1    
    19    9   10 ar   
    20    9   14 ar   
    21   10   11 ar   
    22   10   81 1    
    23   11   12 ar   
    24   11   71 1    
    25   12   13 ar   
    26   12   82 1    
    27   13   14 ar   
    28   13   15 1    
    29   14   83 1    
    30   15   16 1    
    31   15   84 1    
    32   15   85 1    
    33   16   17 1    
    34   17   18 1    
    35   17   86 1    
    36   17   87 1    
    37   18   19 1    
    38   18   37 1    
    39   18   88 1    
    40   19   20 am   BACKBONE|DICT|INTERRES
    41   19   89 1    
    42   20   21 2    
    43   20   22 1    
    44   22   23 1    
    45   22   24 1    
    46   22   90 1    
    47   23   91 1    
    48   23   92 1    
    49   23   93 1    
    50   24   25 am   BACKBONE|DICT|INTERRES
    51   24   94 1    
    52   25   26 2    
    53   25   27 1    
    54   27   28 1    
    55   27   29 1    
    56   27   95 1    
    57   28   96 1    
    58   28   97 1    
    59   28   98 1    
    60   29   30 am   BACKBONE|DICT|INTERRES
    61   29   99 1    
    62   30   31 2    
    63   30   32 1    
    64   32   33 1    
    65   32   34 1    
    66   32  100 1    
    67   33  101 1    
    68   33  102 1    
    69   33  103 1    
    70   34   35 am   BACKBONE|DICT|INTERRES
    71   34  104 1    
    72   35   36 2    
    73   37   38 2    
    74   37   39 am   BACKBONE|DICT|INTERRES
    75   39   40 1    
    76   39  105 1    
    77   40   41 1    
    78   40   42 1    
    79   40  106 1    
    80   41  107 1    
    81   41  108 1    
    82   41  109 1    
    83   42   43 2    
    84   42   44 am   BACKBONE|DICT|INTERRES
    85   44   45 1    
    86   44  110 1    
    87   45   46 1    
    88   45   47 1    
    89   45  111 1    
    90   46  112 1    
    91   46  113 1    
    92   46  114 1    
    93   47   48 2    
    94   47   49 am   BACKBONE|DICT|INTERRES
    95   49   50 1    
    96   49  115 1    
    97   50   51 1    
    98   50   52 1    
    99   50  116 1    
   100   51  117 1    
   101   51  118 1    
   102   51  119 1    
   103   52   53 2    
   104   52   54 am   BACKBONE|DICT|INTERRES
   105   54   55 1    
   106   54  120 1    
   107   55   56 1    
   108   55   57 1    
   109   55  121 1    
   110   56  122 1    
   111   56  123 1    
   112   56  124 1    
   113   57   58 2    
   114   57   59 am   BACKBONE|DICT|INTERRES
   115   59   60 1    
   116   59  125 1    
   117   60   61 1    
   118   60   62 1    
   119   60  126 1    
   120   61  127 1    
   121   61  128 1    
   122   61  129 1    
   123   62   63 2    
   124   62   64 am   BACKBONE|DICT|INTERRES
   125   64   65 1    
   126   64  130 1    
   127   65   66 1    
   128   65   69 1    
   129   65  131 1    
   130   66   67 am   BACKBONE|DICT|INTERRES
   131   66   68 2    
   132   67  132 1    
   133   67  133 1    
   134   69   70 1    
   135   69  134 1    
   136   69  135 1    
   137   70   71 1    
   138   71  136 1    
   139   71  137 1    
@<TRIPOS>SUBSTRUCTURE
     1 UNK         1 GROUP             0       ****    0 ROOT    
