@<TRIPOS>MOLECULE
3R136
137   139    1
SMALL
USER_CHARGES


@<TRIPOS>ATOM
      1 CA         29.0184   21.2367    6.8035 C.3       0 UNK        -0.1979 
      2 C          28.4469   21.6115    5.4439 C.2       0 UNK         0.4864 
      3 O          27.2847   21.3132    5.1655 O.2       0 UNK        -0.5359 
      4 N          29.2586   22.2551    4.5945 N.am      1 UNK        -0.4318 
      5 CA         28.8738   22.7583    3.2740 C.3       1 UNK         0.0824 
      6 C6         30.1233   23.1553    2.4455 C.3       12 UNK        -0.0944 
      7 S7         29.7842   23.2724    0.6564 S.3       12 UNK        -0.2672 
      8 C8         29.6462   25.0734    0.4256 C.3       12 UNK         0.0333 
      9 C9         30.9599   25.7162    0.0071 C.ar      12 UNK        -0.0807 
     10 C10        31.9583   25.9784    0.9473 C.ar      12 UNK        -0.0894 
     11 C11        33.1531   26.5880    0.5595 C.ar      12 UNK        -0.0804 
     12 C12        33.3351   26.9626   -0.7759 C.ar      12 UNK        -0.0824 
     13 C13        32.3330   26.7384   -1.7275 C.ar      12 UNK        -0.0762 
     14 C14        31.1552   26.0921   -1.3244 C.ar      12 UNK        -0.0782 
     15 C15        32.5739   27.2170   -3.1638 C.3       12 UNK         0.0230 
     16 S16        31.1831   26.9625   -4.3264 S.3       12 UNK        -0.2608 
     17 C17        30.7462   28.6608   -4.8531 C.3       12 UNK        -0.0989 
     18 CA         29.6007   29.3368   -4.0488 C.3       5 UNK         0.0716 
     19 N          28.5110   28.4045   -3.7168 N.am      5 UNK        -0.4135 
     20 C          27.3184   28.7496   -3.2082 C.2       4 UNK         0.5031 
     21 O          26.9420   29.9170   -3.0904 O.2       4 UNK        -0.5229 
     22 CA         26.4051   27.6245   -2.6967 C.3       4 UNK         0.0329 
     23 CB         26.9033   26.1969   -3.0063 C.3       4 UNK        -0.2001 
     24 N          26.2887   27.7935   -1.2515 N.am      4 UNK        -0.4303 
     25 C          25.1704   27.7117   -0.5256 C.2       3 UNK         0.5044 
     26 O          24.0626   27.4130   -0.9777 O.2       3 UNK        -0.5152 
     27 CA         25.3247   28.0418    0.9730 C.3       3 UNK         0.0319 
     28 CB         24.3405   29.1443    1.3993 C.3       3 UNK        -0.2001 
     29 N          25.1761   26.8916    1.8714 N.am      3 UNK        -0.4354 
     30 C          25.8070   25.7131    1.7688 C.2       2 UNK         0.4964 
     31 O          26.5325   25.3905    0.8282 O.2       2 UNK        -0.5047 
     32 CA         25.5696   24.7165    2.9163 C.3       2 UNK         0.0288 
     33 CB         24.2170   24.0044    2.7450 C.3       2 UNK        -0.2113 
     34 N          26.6297   23.7076    2.9765 N.am      2 UNK        -0.4145 
     35 C          27.8753   23.9279    3.4180 C.2       1 UNK         0.5006 
     36 O          28.2538   24.9897    3.9241 O.2       1 UNK        -0.5103 
     37 C          30.1314   30.1020   -2.8138 C.2       5 UNK         0.5055 
     38 O          30.5644   31.2478   -2.9457 O.2       5 UNK        -0.5220 
     39 N          30.0374   29.4713   -1.6413 N.am      6 UNK        -0.4450 
     40 CA         30.1866   30.0343   -0.3067 C.3       6 UNK         0.0367 
     41 CB         31.6733   30.2155    0.0526 C.3       6 UNK        -0.1929 
     42 C          29.4402   29.0831    0.6427 C.2       6 UNK         0.5070 
     43 O          28.6880   28.2268    0.1679 O.2       6 UNK        -0.5237 
     44 N          29.6478   29.2374    1.9512 N.am      7 UNK        -0.4739 
     45 CA         29.1565   28.3366    2.9909 C.3       7 UNK         0.0276 
     46 CB         28.0283   29.0263    3.7759 C.3       7 UNK        -0.1927 
     47 C          30.3324   28.0281    3.9190 C.2       7 UNK         0.5013 
     48 O          31.1856   28.8990    4.1093 O.2       7 UNK        -0.5193 
     49 N          30.3381   26.8398    4.5378 N.am      8 UNK        -0.4253 
     50 CA         31.3849   26.4032    5.4745 C.3       8 UNK         0.0242 
     51 CB         31.1026   24.9683    5.9429 C.3       8 UNK        -0.2000 
     52 C          31.5817   27.3376    6.6831 C.2       8 UNK         0.4948 
     53 O          32.7100   27.4923    7.1504 O.2       8 UNK        -0.5275 
     54 N          30.4946   27.9843    7.1269 N.am      9 UNK        -0.4246 
     55 CA         30.4981   29.0178    8.1645 C.3       9 UNK         0.0261 
     56 CB         29.0475   29.3338    8.5644 C.3       9 UNK        -0.1959 
     57 C          31.2354   30.3087    7.7560 C.2       9 UNK         0.5033 
     58 O          31.7252   31.0148    8.6387 O.2       9 UNK        -0.5390 
     59 N          31.3035   30.5990    6.4483 N.am      10 UNK        -0.4215 
     60 CA         32.0613   31.7198    5.8912 C.3       10 UNK         0.0240 
     61 CB         31.3715   32.2382    4.6172 C.3       10 UNK        -0.1982 
     62 C          33.5127   31.3104    5.6009 C.2       10 UNK         0.4970 
     63 O          34.4201   32.0988    5.8698 O.2       10 UNK        -0.4916 
     64 N          33.7073   30.0965    5.0654 N.am      11 UNK        -0.4279 
     65 CA         35.0288   29.5172    4.7746 C.3       11 UNK         0.1003 
     66 C          35.8869   29.2510    6.0423 C.2       11 UNK         0.5709 
     67 N          35.3028   28.7774    7.1363 N.am      11 UNK        -0.7358 
     68 O          37.0940   29.4803    6.0317 O.2       11 UNK        -0.4999 
     69 C69        34.9330   28.2321    3.9143 C.3       12 UNK        -0.0954 
     70 S70        34.0445   28.4873    2.3462 S.3       12 UNK        -0.2268 
     71 C71        34.2369   26.8456    1.5935 C.3       12 UNK         0.0203 
     72 H72        30.0504   21.5678    6.9185 H         1 UNK         0.0888 
     73 H73        28.4267   21.6925    7.5969 H         1 UNK         0.0888 
     74 H74        28.9921   20.1555    6.9364 H         1 UNK         0.0888 
     75 H75        30.2013   22.4660    4.8851 H         1 UNK         0.3017 
     76 H76        28.3770   21.9353    2.7549 H         1 UNK         0.0873 
     77 H77        30.5649   24.0802    2.8145 H         1 UNK         0.0745 
     78 H78        30.8973   22.3946    2.5601 H         1 UNK         0.0745 
     79 H79        28.8850   25.2624   -0.3322 H         1 UNK         0.0705 
     80 H80        29.2769   25.5441    1.3351 H         1 UNK         0.0705 
     81 H81        31.8103   25.7142    1.9837 H         1 UNK         0.1334 
     82 H82        34.2544   27.4510   -1.0698 H         1 UNK         0.1417 
     83 H83        30.3690   25.8853   -2.0341 H         1 UNK         0.1562 
     84 H84        33.4442   26.6933   -3.5617 H         1 UNK         0.0748 
     85 H85        32.8397   28.2746   -3.1373 H         1 UNK         0.0748 
     86 H86        30.4282   28.5808   -5.8938 H         1 UNK         0.0940 
     87 H87        31.6399   29.2876   -4.8878 H         1 UNK         0.0940 
     88 H88        29.1649   30.1006   -4.6969 H         1 UNK         0.0703 
     89 H89        28.7391   27.4246   -3.8055 H         1 UNK         0.3081 
     90 H90        25.4316   27.7664   -3.1705 H         1 UNK         0.0719 
     91 H91        27.0173   26.0381   -4.0795 H         1 UNK         0.0809 
     92 H92        26.1886   25.4547   -2.6495 H         1 UNK         0.0809 
     93 H93        27.8576   25.9803   -2.5256 H         1 UNK         0.0809 
     94 H94        27.1554   28.0158   -0.7613 H         1 UNK         0.2990 
     95 H95        26.3295   28.4312    1.1328 H         1 UNK         0.0690 
     96 H96        24.5285   29.4739    2.4213 H         1 UNK         0.0788 
     97 H97        23.3053   28.8057    1.3390 H         1 UNK         0.0788 
     98 H98        24.4345   30.0203    0.7560 H         1 UNK         0.0788 
     99 H99        24.5641   27.0328    2.6617 H         1 UNK         0.2993 
    100 H100       25.5657   25.2673    3.8597 H         1 UNK         0.0949 
    101 H101       24.0307   23.3057    3.5612 H         1 UNK         0.0767 
    102 H102       23.3929   24.7190    2.7389 H         1 UNK         0.0767 
    103 H103       24.1710   23.4469    1.8083 H         1 UNK         0.0767 
    104 H104       26.4145   22.8106    2.5669 H         1 UNK         0.3013 
    105 H105       29.6370   28.5414   -1.6194 H         1 UNK         0.3121 
    106 H106       29.6822   31.0019   -0.2748 H         1 UNK         0.0774 
    107 H107       31.7959   30.7192    1.0116 H         1 UNK         0.0815 
    108 H108       32.1815   29.2565    0.1211 H         1 UNK         0.0815 
    109 H109       32.1960   30.8160   -0.6915 H         1 UNK         0.0815 
    110 H110       30.3445   29.8982    2.2695 H         1 UNK         0.2987 
    111 H111       28.7841   27.4057    2.5598 H         1 UNK         0.0949 
    112 H112       28.3815   29.9205    4.2916 H         1 UNK         0.0806 
    113 H113       27.2117   29.3257    3.1205 H         1 UNK         0.0806 
    114 H114       27.6100   28.3555    4.5274 H         1 UNK         0.0806 
    115 H115       29.5791   26.1837    4.3549 H         1 UNK         0.3010 
    116 H116       32.3269   26.3978    4.9231 H         1 UNK         0.0829 
    117 H117       31.8184   24.6540    6.7041 H         1 UNK         0.0813 
    118 H118       30.1037   24.8694    6.3699 H         1 UNK         0.0813 
    119 H119       31.1915   24.2673    5.1158 H         1 UNK         0.0813 
    120 H120       29.6092   27.7823    6.6860 H         1 UNK         0.3038 
    121 H121       31.0136   28.6113    9.0373 H         1 UNK         0.0769 
    122 H122       28.4726   29.7264    7.7247 H         1 UNK         0.0811 
    123 H123       29.0162   30.0816    9.3582 H         1 UNK         0.0811 
    124 H124       28.5357   28.4468    8.9384 H         1 UNK         0.0811 
    125 H125       30.9397   29.9323    5.7758 H         1 UNK         0.3204 
    126 H126       32.0804   32.5387    6.6138 H         1 UNK         0.0748 
    127 H127       30.3396   32.5283    4.8153 H         1 UNK         0.0771 
    128 H128       31.8869   33.1181    4.2300 H         1 UNK         0.0771 
    129 H129       31.3636   31.4937    3.8213 H         1 UNK         0.0771 
    130 H130       32.9032   29.5334    4.8083 H         1 UNK         0.2980 
    131 H131       35.5705   30.2589    4.1841 H         1 UNK         0.0545 
    132 H132       34.3244   28.5015    7.1264 H         1 UNK         0.3459 
    133 H133       35.8600   28.6105    7.9583 H         1 UNK         0.3459 
    134 H134       35.9312   27.8589    3.6768 H         1 UNK         0.0616 
    135 H135       34.4300   27.4403    4.4715 H         1 UNK         0.0616 
    136 H136       34.1936   26.0786    2.3686 H         1 UNK         0.0634 
    137 H137       35.2256   26.7703    1.1387 H         1 UNK         0.0634 
@<TRIPOS>BOND
     1    1    2 1    
     2    1   72 1    
     3    1   73 1    
     4    1   74 1    
     5    2    3 2    
     6    2    4 am   BACKBONE|DICT|INTERRES
     7    4    5 1    
     8    4   75 1    
     9    5    6 1    
    10    5   35 1    
    11    5   76 1    
    12    6    7 1    
    13    6   77 1    
    14    6   78 1    
    15    7    8 1    
    16    8    9 1    
    17    8   79 1    
    18    8   80 1    
    19    9   10 ar   
    20    9   14 ar   
    21   10   11 ar   
    22   10   81 1    
    23   11   12 ar   
    24   11   71 1    
    25   12   13 ar   
    26   12   82 1    
    27   13   14 ar   
    28   13   15 1    
    29   14   83 1    
    30   15   16 1    
    31   15   84 1    
    32   15   85 1    
    33   16   17 1    
    34   17   18 1    
    35   17   86 1    
    36   17   87 1    
    37   18   19 1    
    38   18   37 1    
    39   18   88 1    
    40   19   20 am   BACKBONE|DICT|INTERRES
    41   19   89 1    
    42   20   21 2    
    43   20   22 1    
    44   22   23 1    
    45   22   24 1    
    46   22   90 1    
    47   23   91 1    
    48   23   92 1    
    49   23   93 1    
    50   24   25 am   BACKBONE|DICT|INTERRES
    51   24   94 1    
    52   25   26 2    
    53   25   27 1    
    54   27   28 1    
    55   27   29 1    
    56   27   95 1    
    57   28   96 1    
    58   28   97 1    
    59   28   98 1    
    60   29   30 am   BACKBONE|DICT|INTERRES
    61   29   99 1    
    62   30   31 2    
    63   30   32 1    
    64   32   33 1    
    65   32   34 1    
    66   32  100 1    
    67   33  101 1    
    68   33  102 1    
    69   33  103 1    
    70   34   35 am   BACKBONE|DICT|INTERRES
    71   34  104 1    
    72   35   36 2    
    73   37   38 2    
    74   37   39 am   BACKBONE|DICT|INTERRES
    75   39   40 1    
    76   39  105 1    
    77   40   41 1    
    78   40   42 1    
    79   40  106 1    
    80   41  107 1    
    81   41  108 1    
    82   41  109 1    
    83   42   43 2    
    84   42   44 am   BACKBONE|DICT|INTERRES
    85   44   45 1    
    86   44  110 1    
    87   45   46 1    
    88   45   47 1    
    89   45  111 1    
    90   46  112 1    
    91   46  113 1    
    92   46  114 1    
    93   47   48 2    
    94   47   49 am   BACKBONE|DICT|INTERRES
    95   49   50 1    
    96   49  115 1    
    97   50   51 1    
    98   50   52 1    
    99   50  116 1    
   100   51  117 1    
   101   51  118 1    
   102   51  119 1    
   103   52   53 2    
   104   52   54 am   BACKBONE|DICT|INTERRES
   105   54   55 1    
   106   54  120 1    
   107   55   56 1    
   108   55   57 1    
   109   55  121 1    
   110   56  122 1    
   111   56  123 1    
   112   56  124 1    
   113   57   58 2    
   114   57   59 am   BACKBONE|DICT|INTERRES
   115   59   60 1    
   116   59  125 1    
   117   60   61 1    
   118   60   62 1    
   119   60  126 1    
   120   61  127 1    
   121   61  128 1    
   122   61  129 1    
   123   62   63 2    
   124   62   64 am   BACKBONE|DICT|INTERRES
   125   64   65 1    
   126   64  130 1    
   127   65   66 1    
   128   65   69 1    
   129   65  131 1    
   130   66   67 am   BACKBONE|DICT|INTERRES
   131   66   68 2    
   132   67  132 1    
   133   67  133 1    
   134   69   70 1    
   135   69  134 1    
   136   69  135 1    
   137   70   71 1    
   138   71  136 1    
   139   71  137 1    
@<TRIPOS>SUBSTRUCTURE
     1 UNK         1 GROUP             0       ****    0 ROOT    
