@<TRIPOS>MOLECULE
3R136
137   139    1
SMALL
USER_CHARGES


@<TRIPOS>ATOM
      1 CA         31.8732   26.1720   -3.9927 C.3       0 UNK        -0.1979 
      2 C          31.0165   26.6306   -2.8221 C.2       0 UNK         0.4864 
      3 O          30.3887   27.6864   -2.9021 O.2       0 UNK        -0.5359 
      4 N          30.9915   25.8465   -1.7361 N.am      1 UNK        -0.4318 
      5 CA         30.2116   26.1151   -0.5223 C.3       1 UNK         0.0824 
      6 C6         30.7227   25.2766    0.6789 C.3       12 UNK        -0.0944 
      7 S7         30.5997   23.4706    0.4151 S.3       12 UNK        -0.2672 
      8 C8         31.7712   22.8192    1.6487 C.3       12 UNK         0.0333 
      9 C9         31.3747   23.1365    3.0866 C.ar      12 UNK        -0.0807 
     10 C10        32.3216   23.6731    3.9636 C.ar      12 UNK        -0.0894 
     11 C11        31.9853   23.9572    5.2904 C.ar      12 UNK        -0.0804 
     12 C12        30.6866   23.7022    5.7393 C.ar      12 UNK        -0.0824 
     13 C13        29.7311   23.1526    4.8783 C.ar      12 UNK        -0.0762 
     14 C14        30.0842   22.8643    3.5556 C.ar      12 UNK        -0.0782 
     15 C15        28.3310   22.8408    5.3954 C.3       12 UNK         0.0230 
     16 S16        27.0055   23.6361    4.4288 S.3       12 UNK        -0.2608 
     17 C17        27.3831   25.4116    4.6275 C.3       12 UNK        -0.0989 
     18 CA         27.4368   26.1370    3.2554 C.3       5 UNK         0.0716 
     19 N          26.1632   26.0872    2.5206 N.am      5 UNK        -0.4135 
     20 C          25.0156   26.6958    2.8678 C.2       4 UNK         0.5031 
     21 O          24.8579   27.3276    3.9133 O.2       4 UNK        -0.5229 
     22 CA         23.8364   26.6265    1.8793 C.3       4 UNK         0.0329 
     23 CB         23.7471   27.9347    1.0751 C.3       4 UNK        -0.2001 
     24 N          23.9163   25.5052    0.9453 N.am      4 UNK        -0.4303 
     25 C          23.7133   24.2181    1.2597 C.2       3 UNK         0.5044 
     26 O          23.3378   23.8331    2.3672 O.2       3 UNK        -0.5152 
     27 CA         23.9875   23.1829    0.1495 C.3       3 UNK         0.0319 
     28 CB         22.6697   22.7213   -0.4938 C.3       3 UNK        -0.2001 
     29 N          24.8931   23.6695   -0.9009 N.am      3 UNK        -0.4354 
     30 C          26.1747   24.0096   -0.7021 C.2       2 UNK         0.4964 
     31 O          26.7375   23.8872    0.3879 O.2       2 UNK        -0.5047 
     32 CA         26.9215   24.6008   -1.9167 C.3       2 UNK         0.0288 
     33 CB         26.1420   25.7664   -2.5674 C.3       2 UNK        -0.2113 
     34 N          28.2945   25.0181   -1.6029 N.am      2 UNK        -0.4145 
     35 C          28.6896   25.9634   -0.7333 C.2       1 UNK         0.5006 
     36 O          27.9212   26.6971   -0.1066 O.2       1 UNK        -0.5103 
     37 C          27.9406   27.5950    3.3575 C.2       5 UNK         0.5055 
     38 O          28.1667   28.1017    4.4587 O.2       5 UNK        -0.5220 
     39 N          28.0318   28.2598    2.1987 N.am      6 UNK        -0.4450 
     40 CA         28.2545   29.6949    2.0679 C.3       6 UNK         0.0367 
     41 CB         26.8945   30.3978    1.8900 C.3       6 UNK        -0.1929 
     42 C          29.2322   29.9793    0.9196 C.2       6 UNK         0.5070 
     43 O          28.8429   30.5469   -0.1028 O.2       6 UNK        -0.5237 
     44 N          30.4970   29.5937    1.1206 N.am      7 UNK        -0.4739 
     45 CA         31.6417   30.0600    0.3338 C.3       7 UNK         0.0276 
     46 CB         32.7589   28.9981    0.3987 C.3       7 UNK        -0.1927 
     47 C          32.1354   31.4193    0.8746 C.2       7 UNK         0.5013 
     48 O          31.5015   32.0112    1.7554 O.2       7 UNK        -0.5193 
     49 N          33.2849   31.8865    0.3665 N.am      8 UNK        -0.4253 
     50 CA         34.0079   33.0497    0.8901 C.3       8 UNK         0.0242 
     51 CB         35.2398   33.3275    0.0127 C.3       8 UNK        -0.2000 
     52 C          34.4143   32.8207    2.3576 C.2       8 UNK         0.4948 
     53 O          35.0987   31.8361    2.6447 O.2       8 UNK        -0.5275 
     54 N          33.9378   33.7040    3.2480 N.am      9 UNK        -0.4246 
     55 CA         34.0270   33.6144    4.7133 C.3       9 UNK         0.0261 
     56 CB         35.4888   33.7617    5.1892 C.3       9 UNK        -0.1959 
     57 C          33.3321   32.3577    5.2839 C.2       9 UNK         0.5033 
     58 O          33.8222   31.7716    6.2504 O.2       9 UNK        -0.5390 
     59 N          32.2124   31.9575    4.6607 N.am      10 UNK        -0.4215 
     60 CA         31.4015   30.7553    4.8977 C.3       10 UNK         0.0240 
     61 CB         30.9091   30.6346    6.3535 C.3       10 UNK        -0.1982 
     62 C          32.0884   29.4706    4.4103 C.2       10 UNK         0.4970 
     63 O          31.4996   28.7558    3.6002 O.2       10 UNK        -0.4916 
     64 N          33.3187   29.2293    4.8696 N.am      11 UNK        -0.4279 
     65 CA         34.2194   28.1515    4.4471 C.3       11 UNK         0.1003 
     66 C          35.6157   28.3037    5.1061 C.2       11 UNK         0.5709 
     67 N          36.6268   27.6258    4.5786 N.am      11 UNK        -0.7358 
     68 O          35.7968   29.0177    6.0910 O.2       11 UNK        -0.4999 
     69 C69        33.6296   26.7200    4.6129 C.3       12 UNK        -0.0954 
     70 S70        33.0203   26.3328    6.2900 S.3       12 UNK        -0.2268 
     71 C71        33.0320   24.5142    6.2464 C.3       12 UNK         0.0203 
     72 H72        32.6340   26.9195   -4.2158 H         1 UNK         0.0888 
     73 H73        32.3767   25.2278   -3.7852 H         1 UNK         0.0888 
     74 H74        31.2552   26.0389   -4.8802 H         1 UNK         0.0888 
     75 H75        31.5300   24.9914   -1.7238 H         1 UNK         0.3017 
     76 H76        30.3601   27.1656   -0.2717 H         1 UNK         0.0873 
     77 H77        31.7659   25.5281    0.8771 H         1 UNK         0.0745 
     78 H78        30.1850   25.5384    1.5904 H         1 UNK         0.0745 
     79 H79        32.7657   23.2073    1.4228 H         1 UNK         0.0705 
     80 H80        31.8307   21.7361    1.5353 H         1 UNK         0.0705 
     81 H81        33.3271   23.8654    3.6155 H         1 UNK         0.1334 
     82 H82        30.4264   23.9209    6.7661 H         1 UNK         0.1417 
     83 H83        29.3493   22.4349    2.8877 H         1 UNK         0.1562 
     84 H84        28.2255   23.1392    6.4397 H         1 UNK         0.0748 
     85 H85        28.1812   21.7607    5.3702 H         1 UNK         0.0748 
     86 H86        28.3352   25.5223    5.1491 H         1 UNK         0.0940 
     87 H87        26.6324   25.8601    5.2799 H         1 UNK         0.0940 
     88 H88        28.1601   25.6072    2.6356 H         1 UNK         0.0703 
     89 H89        26.1964   25.5657    1.6524 H         1 UNK         0.3081 
     90 H90        22.9210   26.5192    2.4654 H         1 UNK         0.0719 
     91 H91        24.6320   28.0890    0.4559 H         1 UNK         0.0809 
     92 H92        22.8733   27.9427    0.4233 H         1 UNK         0.0809 
     93 H93        23.6615   28.7962    1.7391 H         1 UNK         0.0809 
     94 H94        24.2033   25.7205    0.0022 H         1 UNK         0.2990 
     95 H95        24.4594   22.3191    0.6228 H         1 UNK         0.0690 
     96 H96        22.8391   21.9274   -1.2216 H         1 UNK         0.0788 
     97 H97        22.1584   23.5406   -1.0009 H         1 UNK         0.0788 
     98 H98        21.9855   22.3267    0.2588 H         1 UNK         0.0788 
     99 H99        24.4964   23.7796   -1.8234 H         1 UNK         0.2993 
    100 H100       27.0096   23.7970   -2.6493 H         1 UNK         0.0949 
    101 H101       26.7145   26.2168   -3.3786 H         1 UNK         0.0767 
    102 H102       25.1983   25.4296   -2.9970 H         1 UNK         0.0767 
    103 H103       25.9114   26.5547   -1.8498 H         1 UNK         0.0767 
    104 H104       29.0220   24.4552   -2.0198 H         1 UNK         0.3013 
    105 H105       27.8843   27.7499    1.3260 H         1 UNK         0.3121 
    106 H106       28.7174   30.0862    2.9754 H         1 UNK         0.0774 
    107 H107       27.0226   31.4765    1.7914 H         1 UNK         0.0815 
    108 H108       26.3732   30.0457    0.9991 H         1 UNK         0.0815 
    109 H109       26.2443   30.2244    2.7477 H         1 UNK         0.0815 
    110 H110       30.7327   29.1724    2.0184 H         1 UNK         0.2987 
    111 H111       31.3407   30.1935   -0.7078 H         1 UNK         0.0949 
    112 H112       33.5880   29.2473   -0.2639 H         1 UNK         0.0806 
    113 H113       33.1646   28.9038    1.4058 H         1 UNK         0.0806 
    114 H114       32.4060   28.0158    0.0927 H         1 UNK         0.0806 
    115 H115       33.7615   31.3415   -0.3366 H         1 UNK         0.3010 
    116 H116       33.3416   33.9130    0.8295 H         1 UNK         0.0829 
    117 H117       34.9556   33.5304   -1.0200 H         1 UNK         0.0813 
    118 H118       35.7864   34.1993    0.3749 H         1 UNK         0.0813 
    119 H119       35.9340   32.4859    0.0120 H         1 UNK         0.0813 
    120 H120       33.3808   34.4722    2.8978 H         1 UNK         0.3038 
    121 H121       33.4693   34.4664    5.1052 H         1 UNK         0.0769 
    122 H122       35.5395   33.8394    6.2759 H         1 UNK         0.0811 
    123 H123       35.9521   34.6590    4.7795 H         1 UNK         0.0811 
    124 H124       36.0983   32.9054    4.8983 H         1 UNK         0.0811 
    125 H125       31.9543   32.4561    3.8153 H         1 UNK         0.3204 
    126 H126       30.5163   30.8887    4.2751 H         1 UNK         0.0748 
    127 H127       30.2037   29.8079    6.4502 H         1 UNK         0.0771 
    128 H128       31.7235   30.4437    7.0524 H         1 UNK         0.0771 
    129 H129       30.3946   31.5402    6.6745 H         1 UNK         0.0771 
    130 H130       33.7294   29.8902    5.5250 H         1 UNK         0.2980 
    131 H131       34.3861   28.3158    3.3818 H         1 UNK         0.0545 
    132 H132       37.5402   27.7095    4.9964 H         1 UNK         0.3459 
    133 H133       36.4983   27.0364    3.7713 H         1 UNK         0.3459 
    134 H134       32.8019   26.5754    3.9183 H         1 UNK         0.0616 
    135 H135       34.3725   25.9746    4.3260 H         1 UNK         0.0616 
    136 H136       34.0274   24.1618    5.9716 H         1 UNK         0.0634 
    137 H137       32.8470   24.1401    7.2544 H         1 UNK         0.0634 
@<TRIPOS>BOND
     1    1    2 1    
     2    1   72 1    
     3    1   73 1    
     4    1   74 1    
     5    2    3 2    
     6    2    4 am   BACKBONE|DICT|INTERRES
     7    4    5 1    
     8    4   75 1    
     9    5    6 1    
    10    5   35 1    
    11    5   76 1    
    12    6    7 1    
    13    6   77 1    
    14    6   78 1    
    15    7    8 1    
    16    8    9 1    
    17    8   79 1    
    18    8   80 1    
    19    9   10 ar   
    20    9   14 ar   
    21   10   11 ar   
    22   10   81 1    
    23   11   12 ar   
    24   11   71 1    
    25   12   13 ar   
    26   12   82 1    
    27   13   14 ar   
    28   13   15 1    
    29   14   83 1    
    30   15   16 1    
    31   15   84 1    
    32   15   85 1    
    33   16   17 1    
    34   17   18 1    
    35   17   86 1    
    36   17   87 1    
    37   18   19 1    
    38   18   37 1    
    39   18   88 1    
    40   19   20 am   BACKBONE|DICT|INTERRES
    41   19   89 1    
    42   20   21 2    
    43   20   22 1    
    44   22   23 1    
    45   22   24 1    
    46   22   90 1    
    47   23   91 1    
    48   23   92 1    
    49   23   93 1    
    50   24   25 am   BACKBONE|DICT|INTERRES
    51   24   94 1    
    52   25   26 2    
    53   25   27 1    
    54   27   28 1    
    55   27   29 1    
    56   27   95 1    
    57   28   96 1    
    58   28   97 1    
    59   28   98 1    
    60   29   30 am   BACKBONE|DICT|INTERRES
    61   29   99 1    
    62   30   31 2    
    63   30   32 1    
    64   32   33 1    
    65   32   34 1    
    66   32  100 1    
    67   33  101 1    
    68   33  102 1    
    69   33  103 1    
    70   34   35 am   BACKBONE|DICT|INTERRES
    71   34  104 1    
    72   35   36 2    
    73   37   38 2    
    74   37   39 am   BACKBONE|DICT|INTERRES
    75   39   40 1    
    76   39  105 1    
    77   40   41 1    
    78   40   42 1    
    79   40  106 1    
    80   41  107 1    
    81   41  108 1    
    82   41  109 1    
    83   42   43 2    
    84   42   44 am   BACKBONE|DICT|INTERRES
    85   44   45 1    
    86   44  110 1    
    87   45   46 1    
    88   45   47 1    
    89   45  111 1    
    90   46  112 1    
    91   46  113 1    
    92   46  114 1    
    93   47   48 2    
    94   47   49 am   BACKBONE|DICT|INTERRES
    95   49   50 1    
    96   49  115 1    
    97   50   51 1    
    98   50   52 1    
    99   50  116 1    
   100   51  117 1    
   101   51  118 1    
   102   51  119 1    
   103   52   53 2    
   104   52   54 am   BACKBONE|DICT|INTERRES
   105   54   55 1    
   106   54  120 1    
   107   55   56 1    
   108   55   57 1    
   109   55  121 1    
   110   56  122 1    
   111   56  123 1    
   112   56  124 1    
   113   57   58 2    
   114   57   59 am   BACKBONE|DICT|INTERRES
   115   59   60 1    
   116   59  125 1    
   117   60   61 1    
   118   60   62 1    
   119   60  126 1    
   120   61  127 1    
   121   61  128 1    
   122   61  129 1    
   123   62   63 2    
   124   62   64 am   BACKBONE|DICT|INTERRES
   125   64   65 1    
   126   64  130 1    
   127   65   66 1    
   128   65   69 1    
   129   65  131 1    
   130   66   67 am   BACKBONE|DICT|INTERRES
   131   66   68 2    
   132   67  132 1    
   133   67  133 1    
   134   69   70 1    
   135   69  134 1    
   136   69  135 1    
   137   70   71 1    
   138   71  136 1    
   139   71  137 1    
@<TRIPOS>SUBSTRUCTURE
     1 UNK         1 GROUP             0       ****    0 ROOT    
