@<TRIPOS>MOLECULE
3R136
137   139    1
SMALL
USER_CHARGES


@<TRIPOS>ATOM
      1 CA         28.4538   20.2150   -1.3105 C.3       0 UNK        -0.1979 
      2 C          29.4755   21.3324   -1.1592 C.2       0 UNK         0.4864 
      3 O          30.5045   21.1360   -0.5110 O.2       0 UNK        -0.5359 
      4 N          29.1996   22.4988   -1.7513 N.am      1 UNK        -0.4318 
      5 CA         30.0554   23.6832   -1.7450 C.3       1 UNK         0.0824 
      6 C6         30.0852   24.3975   -0.3642 C.3       12 UNK        -0.0944 
      7 S7         31.6833   25.2237   -0.0539 S.3       12 UNK        -0.2672 
      8 C8         32.3870   24.2087    1.2830 C.3       12 UNK         0.0333 
      9 C9         31.6271   24.3765    2.5918 C.ar      12 UNK        -0.0807 
     10 C10        31.8053   25.5259    3.3681 C.ar      12 UNK        -0.0894 
     11 C11        31.1292   25.6758    4.5834 C.ar      12 UNK        -0.0804 
     12 C12        30.2680   24.6632    5.0176 C.ar      12 UNK        -0.0824 
     13 C13        30.0339   23.5395    4.2210 C.ar      12 UNK        -0.0762 
     14 C14        30.7360   23.3882    3.0221 C.ar      12 UNK        -0.0782 
     15 C15        28.9901   22.5108    4.6307 C.3       12 UNK         0.0230 
     16 S16        27.3522   22.9140    3.9291 S.3       12 UNK        -0.2608 
     17 C17        26.8071   24.3007    4.9857 C.3       12 UNK        -0.0989 
     18 CA         26.9942   25.6812    4.3063 C.3       5 UNK         0.0716 
     19 N          26.1112   25.8676    3.1523 N.am      5 UNK        -0.4135 
     20 C          26.1872   26.9025    2.3052 C.2       4 UNK         0.5031 
     21 O          27.0712   27.7653    2.3486 O.2       4 UNK        -0.5229 
     22 CA         25.0431   27.0225    1.2825 C.3       4 UNK         0.0329 
     23 CB         23.8922   27.8521    1.8752 C.3       4 UNK        -0.2001 
     24 N          25.4776   27.6437    0.0301 N.am      4 UNK        -0.4303 
     25 C          26.3110   27.0734   -0.8478 C.2       3 UNK         0.5044 
     26 O          26.7506   25.9273   -0.7227 O.2       3 UNK        -0.5152 
     27 CA         26.7394   27.9148   -2.0630 C.3       3 UNK         0.0319 
     28 CB         26.7949   29.4353   -1.7878 C.3       3 UNK        -0.2001 
     29 N          28.0417   27.4227   -2.5006 N.am      3 UNK        -0.4354 
     30 C          28.5765   27.5347   -3.7206 C.2       2 UNK         0.4964 
     31 O          28.0474   28.1495   -4.6473 O.2       2 UNK        -0.5047 
     32 CA         29.9379   26.8469   -3.9523 C.3       2 UNK         0.0288 
     33 CB         31.0715   27.8867   -3.9240 C.3       2 UNK        -0.2113 
     34 N          30.2465   25.7873   -2.9840 N.am      2 UNK        -0.4145 
     35 C          29.6059   24.6143   -2.8875 C.2       1 UNK         0.5006 
     36 O          28.6924   24.2688   -3.6436 O.2       1 UNK        -0.5103 
     37 C          26.7948   26.8217    5.3265 C.2       5 UNK         0.5055 
     38 O          25.6669   27.2811    5.5212 O.2       5 UNK        -0.5220 
     39 N          27.9055   27.2461    5.9454 N.am      6 UNK        -0.4450 
     40 CA         28.0388   28.3967    6.8523 C.3       6 UNK         0.0367 
     41 CB         27.1503   28.2429    8.1061 C.3       6 UNK        -0.1929 
     42 C          27.8546   29.7593    6.1491 C.2       6 UNK         0.5070 
     43 O          27.5706   30.7580    6.8203 O.2       6 UNK        -0.5237 
     44 N          28.0485   29.7873    4.8217 N.am      7 UNK        -0.4739 
     45 CA         28.0125   30.9918    3.9920 C.3       7 UNK         0.0276 
     46 CB         26.6009   31.1962    3.4133 C.3       7 UNK        -0.1927 
     47 C          29.0669   30.9197    2.8798 C.2       7 UNK         0.5013 
     48 O          29.7555   31.9125    2.6411 O.2       7 UNK        -0.5193 
     49 N          29.1732   29.7576    2.2204 N.am      8 UNK        -0.4253 
     50 CA         30.1360   29.4835    1.1524 C.3       8 UNK         0.0242 
     51 CB         29.7699   28.1361    0.5143 C.3       8 UNK        -0.2000 
     52 C          31.6018   29.4441    1.6233 C.2       8 UNK         0.4948 
     53 O          31.8738   29.2035    2.8013 O.2       8 UNK        -0.5275 
     54 N          32.5129   29.6087    0.6522 N.am      9 UNK        -0.4246 
     55 CA         33.9686   29.4713    0.7670 C.3       9 UNK         0.0261 
     56 CB         34.3481   27.9849    0.9913 C.3       9 UNK        -0.1959 
     57 C          34.5873   30.4447    1.7951 C.2       9 UNK         0.5033 
     58 O          34.1857   31.6137    1.8507 O.2       9 UNK        -0.5390 
     59 N          35.5764   29.9613    2.5607 N.am      10 UNK        -0.4215 
     60 CA         36.3425   30.7294    3.5460 C.3       10 UNK         0.0240 
     61 CB         37.7602   30.1330    3.6337 C.3       10 UNK        -0.1982 
     62 C          35.6826   30.7873    4.9376 C.2       10 UNK         0.4970 
     63 O          36.3011   31.3217    5.8594 O.2       10 UNK        -0.4916 
     64 N          34.4710   30.2337    5.0895 N.am      11 UNK        -0.4279 
     65 CA         33.7361   30.1735    6.3644 C.3       11 UNK         0.1003 
     66 C          33.2838   31.5526    6.9294 C.2       11 UNK         0.5709 
     67 N          33.2173   32.6098    6.1285 N.am      11 UNK        -0.7358 
     68 O          32.9909   31.6623    8.1176 O.2       11 UNK        -0.4999 
     69 C69        32.5244   29.2116    6.2904 C.3       12 UNK        -0.0954 
     70 S70        32.9294   27.5345    5.6951 S.3       12 UNK        -0.2268 
     71 C71        31.2309   26.9701    5.3780 C.3       12 UNK         0.0203 
     72 H72        28.1178   19.8792   -0.3295 H         1 UNK         0.0888 
     73 H73        27.5792   20.5370   -1.8764 H         1 UNK         0.0888 
     74 H74        28.8998   19.3657   -1.8281 H         1 UNK         0.0888 
     75 H75        28.3708   22.6084   -2.3244 H         1 UNK         0.3017 
     76 H76        31.0616   23.3424   -1.9997 H         1 UNK         0.0873 
     77 H77        29.2795   25.1266   -0.2644 H         1 UNK         0.0745 
     78 H78        29.9057   23.6800    0.4343 H         1 UNK         0.0745 
     79 H79        33.4280   24.4990    1.4319 H         1 UNK         0.0705 
     80 H80        32.4021   23.1626    0.9720 H         1 UNK         0.0705 
     81 H81        32.4557   26.3149    3.0178 H         1 UNK         0.1334 
     82 H82        29.7342   24.7697    5.9514 H         1 UNK         0.1417 
     83 H83        30.5684   22.5115    2.4103 H         1 UNK         0.1562 
     84 H84        28.9253   22.4348    5.7173 H         1 UNK         0.0748 
     85 H85        29.2889   21.5229    4.2769 H         1 UNK         0.0748 
     86 H86        27.3479   24.2506    5.9325 H         1 UNK         0.0940 
     87 H87        25.7577   24.1444    5.2435 H         1 UNK         0.0940 
     88 H88        28.0144   25.7472    3.9240 H         1 UNK         0.0703 
     89 H89        25.3454   25.2162    3.0677 H         1 UNK         0.3081 
     90 H90        24.6717   26.0212    1.0530 H         1 UNK         0.0719 
     91 H91        24.2085   28.8692    2.1108 H         1 UNK         0.0809 
     92 H92        23.0486   27.9124    1.1872 H         1 UNK         0.0809 
     93 H93        23.5231   27.4062    2.8001 H         1 UNK         0.0809 
     94 H94        25.1944   28.6000   -0.1226 H         1 UNK         0.2990 
     95 H95        26.0124   27.7240   -2.8552 H         1 UNK         0.0690 
     96 H96        27.1809   29.9801   -2.6496 H         1 UNK         0.0788 
     97 H97        27.4311   29.6763   -0.9358 H         1 UNK         0.0788 
     98 H98        25.8027   29.8396   -1.5853 H         1 UNK         0.0788 
     99 H99        28.5002   26.8240   -1.8273 H         1 UNK         0.2993 
    100 H100       29.9063   26.3958   -4.9468 H         1 UNK         0.0949 
    101 H101       31.1601   28.3607   -2.9454 H         1 UNK         0.0767 
    102 H102       32.0332   27.4339   -4.1672 H         1 UNK         0.0767 
    103 H103       30.8949   28.6777   -4.6546 H         1 UNK         0.0767 
    104 H104       30.9819   25.9795   -2.3159 H         1 UNK         0.3013 
    105 H105       28.7722   26.7862    5.7109 H         1 UNK         0.3121 
    106 H106       29.0740   28.3898    7.1969 H         1 UNK         0.0774 
    107 H107       27.3976   28.9984    8.8530 H         1 UNK         0.0815 
    108 H108       26.0915   28.3591    7.8720 H         1 UNK         0.0815 
    109 H109       27.2874   27.2686    8.5757 H         1 UNK         0.0815 
    110 H110       28.2743   28.9217    4.3443 H         1 UNK         0.2987 
    111 H111       28.2626   31.8606    4.6057 H         1 UNK         0.0949 
    112 H112       26.5620   32.0868    2.7848 H         1 UNK         0.0806 
    113 H113       26.2874   30.3494    2.8019 H         1 UNK         0.0806 
    114 H114       25.8642   31.3252    4.2064 H         1 UNK         0.0806 
    115 H115       28.4989   29.0196    2.4055 H         1 UNK         0.3010 
    116 H116       30.0317   30.2720    0.4038 H         1 UNK         0.0829 
    117 H117       28.7311   28.1210    0.1978 H         1 UNK         0.0813 
    118 H118       30.3828   27.9326   -0.3639 H         1 UNK         0.0813 
    119 H119       29.9085   27.3117    1.2165 H         1 UNK         0.0813 
    120 H120       32.1789   29.8375   -0.2729 H         1 UNK         0.3038 
    121 H121       34.3746   29.7685   -0.2034 H         1 UNK         0.0769 
    122 H122       35.4208   27.8235    0.8774 H         1 UNK         0.0811 
    123 H123       33.8583   27.3396    0.2590 H         1 UNK         0.0811 
    124 H124       34.0568   27.6342    1.9848 H         1 UNK         0.0811 
    125 H125       35.8250   28.9833    2.4613 H         1 UNK         0.3204 
    126 H126       36.4338   31.7609    3.1969 H         1 UNK         0.0748 
    127 H127       38.3970   30.7262    4.2936 H         1 UNK         0.0771 
    128 H128       37.7474   29.1131    4.0236 H         1 UNK         0.0771 
    129 H129       38.2439   30.1137    2.6564 H         1 UNK         0.0771 
    130 H130       34.0061   29.8222    4.2923 H         1 UNK         0.2980 
    131 H131       34.4282   29.7617    7.1012 H         1 UNK         0.0545 
    132 H132       33.4483   32.5251    5.1515 H         1 UNK         0.3459 
    133 H133       32.9263   33.4976    6.5053 H         1 UNK         0.3459 
    134 H134       31.7640   29.6380    5.6327 H         1 UNK         0.0616 
    135 H135       32.0581   29.1094    7.2723 H         1 UNK         0.0616 
    136 H136       30.6935   27.7411    4.8242 H         1 UNK         0.0634 
    137 H137       30.7389   26.8665    6.3453 H         1 UNK         0.0634 
@<TRIPOS>BOND
     1    1    2 1    
     2    1   72 1    
     3    1   73 1    
     4    1   74 1    
     5    2    3 2    
     6    2    4 am   BACKBONE|DICT|INTERRES
     7    4    5 1    
     8    4   75 1    
     9    5    6 1    
    10    5   35 1    
    11    5   76 1    
    12    6    7 1    
    13    6   77 1    
    14    6   78 1    
    15    7    8 1    
    16    8    9 1    
    17    8   79 1    
    18    8   80 1    
    19    9   10 ar   
    20    9   14 ar   
    21   10   11 ar   
    22   10   81 1    
    23   11   12 ar   
    24   11   71 1    
    25   12   13 ar   
    26   12   82 1    
    27   13   14 ar   
    28   13   15 1    
    29   14   83 1    
    30   15   16 1    
    31   15   84 1    
    32   15   85 1    
    33   16   17 1    
    34   17   18 1    
    35   17   86 1    
    36   17   87 1    
    37   18   19 1    
    38   18   37 1    
    39   18   88 1    
    40   19   20 am   BACKBONE|DICT|INTERRES
    41   19   89 1    
    42   20   21 2    
    43   20   22 1    
    44   22   23 1    
    45   22   24 1    
    46   22   90 1    
    47   23   91 1    
    48   23   92 1    
    49   23   93 1    
    50   24   25 am   BACKBONE|DICT|INTERRES
    51   24   94 1    
    52   25   26 2    
    53   25   27 1    
    54   27   28 1    
    55   27   29 1    
    56   27   95 1    
    57   28   96 1    
    58   28   97 1    
    59   28   98 1    
    60   29   30 am   BACKBONE|DICT|INTERRES
    61   29   99 1    
    62   30   31 2    
    63   30   32 1    
    64   32   33 1    
    65   32   34 1    
    66   32  100 1    
    67   33  101 1    
    68   33  102 1    
    69   33  103 1    
    70   34   35 am   BACKBONE|DICT|INTERRES
    71   34  104 1    
    72   35   36 2    
    73   37   38 2    
    74   37   39 am   BACKBONE|DICT|INTERRES
    75   39   40 1    
    76   39  105 1    
    77   40   41 1    
    78   40   42 1    
    79   40  106 1    
    80   41  107 1    
    81   41  108 1    
    82   41  109 1    
    83   42   43 2    
    84   42   44 am   BACKBONE|DICT|INTERRES
    85   44   45 1    
    86   44  110 1    
    87   45   46 1    
    88   45   47 1    
    89   45  111 1    
    90   46  112 1    
    91   46  113 1    
    92   46  114 1    
    93   47   48 2    
    94   47   49 am   BACKBONE|DICT|INTERRES
    95   49   50 1    
    96   49  115 1    
    97   50   51 1    
    98   50   52 1    
    99   50  116 1    
   100   51  117 1    
   101   51  118 1    
   102   51  119 1    
   103   52   53 2    
   104   52   54 am   BACKBONE|DICT|INTERRES
   105   54   55 1    
   106   54  120 1    
   107   55   56 1    
   108   55   57 1    
   109   55  121 1    
   110   56  122 1    
   111   56  123 1    
   112   56  124 1    
   113   57   58 2    
   114   57   59 am   BACKBONE|DICT|INTERRES
   115   59   60 1    
   116   59  125 1    
   117   60   61 1    
   118   60   62 1    
   119   60  126 1    
   120   61  127 1    
   121   61  128 1    
   122   61  129 1    
   123   62   63 2    
   124   62   64 am   BACKBONE|DICT|INTERRES
   125   64   65 1    
   126   64  130 1    
   127   65   66 1    
   128   65   69 1    
   129   65  131 1    
   130   66   67 am   BACKBONE|DICT|INTERRES
   131   66   68 2    
   132   67  132 1    
   133   67  133 1    
   134   69   70 1    
   135   69  134 1    
   136   69  135 1    
   137   70   71 1    
   138   71  136 1    
   139   71  137 1    
@<TRIPOS>SUBSTRUCTURE
     1 UNK         1 GROUP             0       ****    0 ROOT    
