@<TRIPOS>MOLECULE
3R136
137   139    1
SMALL
USER_CHARGES


@<TRIPOS>ATOM
      1 CA         26.5203   17.5851   -2.5854 C.3       0 UNK        -0.1979 
      2 C          26.6442   18.9923   -2.0211 C.2       0 UNK         0.4864 
      3 O          25.8499   19.8670   -2.3725 O.2       0 UNK        -0.5359 
      4 N          27.6253   19.2212   -1.1373 N.am      1 UNK        -0.4318 
      5 CA         27.9050   20.5054   -0.4818 C.3       1 UNK         0.0824 
      6 C6         29.3987   20.5979   -0.0649 C.3       12 UNK        -0.0944 
      7 S7         30.0505   22.3009   -0.1234 S.3       12 UNK        -0.2672 
      8 C8         30.2185   22.6924    1.6537 C.3       12 UNK         0.0333 
      9 C9         31.1142   23.8897    1.9864 C.ar      12 UNK        -0.0807 
     10 C10        31.0730   24.4054    3.2872 C.ar      12 UNK        -0.0894 
     11 C11        31.9131   25.4554    3.6700 C.ar      12 UNK        -0.0804 
     12 C12        32.7981   26.0022    2.7373 C.ar      12 UNK        -0.0824 
     13 C13        32.8520   25.5039    1.4338 C.ar      12 UNK        -0.0762 
     14 C14        32.0113   24.4498    1.0644 C.ar      12 UNK        -0.0782 
     15 C15        33.8601   26.0724    0.4459 C.3       12 UNK         0.0230 
     16 S16        33.3171   27.6614   -0.2529 S.3       12 UNK        -0.2608 
     17 C17        32.0618   27.1475   -1.4798 C.3       12 UNK        -0.0989 
     18 CA         30.6547   27.7465   -1.2292 C.3       5 UNK         0.0716 
     19 N          30.1103   27.3216    0.0661 N.am      5 UNK        -0.4135 
     20 C          28.8172   27.3713    0.4096 C.2       4 UNK         0.5031 
     21 O          27.9270   27.8156   -0.3196 O.2       4 UNK        -0.5229 
     22 CA         28.4777   26.8771    1.8269 C.3       4 UNK         0.0329 
     23 CB         28.6152   28.0227    2.8412 C.3       4 UNK        -0.2001 
     24 N          27.1290   26.3163    1.9325 N.am      4 UNK        -0.4303 
     25 C          26.6937   25.2319    1.2805 C.2       3 UNK         0.5044 
     26 O          27.3837   24.5602    0.5088 O.2       3 UNK        -0.5152 
     27 CA         25.2355   24.8316    1.5362 C.3       3 UNK         0.0319 
     28 CB         24.2658   25.7081    0.7247 C.3       3 UNK        -0.2001 
     29 N          25.0754   23.4387    1.1371 N.am      3 UNK        -0.4354 
     30 C          24.4135   22.4925    1.8097 C.2       2 UNK         0.4964 
     31 O          23.7496   22.7095    2.8242 O.2       2 UNK        -0.5047 
     32 CA         24.5010   21.0557    1.2618 C.3       2 UNK         0.0288 
     33 CB         23.1910   20.6672    0.5563 C.3       2 UNK        -0.2113 
     34 N          25.6178   20.8439    0.3347 N.am      2 UNK        -0.4145 
     35 C          26.9109   20.7595    0.6774 C.2       1 UNK         0.5006 
     36 O          27.3066   20.8353    1.8423 O.2       1 UNK        -0.5103 
     37 C          30.6393   29.2793   -1.4447 C.2       5 UNK         0.5055 
     38 O          30.7785   29.7272   -2.5846 O.2       5 UNK        -0.5220 
     39 N          30.4777   30.0511   -0.3648 N.am      6 UNK        -0.4450 
     40 CA         30.3829   31.5062   -0.3438 C.3       6 UNK         0.0367 
     41 CB         31.7852   32.1107   -0.1462 C.3       6 UNK        -0.1929 
     42 C          29.4335   31.9038    0.7933 C.2       6 UNK         0.5070 
     43 O          28.9689   31.0354    1.5373 O.2       6 UNK        -0.5237 
     44 N          29.1730   33.2096    0.9287 N.am      7 UNK        -0.4739 
     45 CA         28.3108   33.8060    1.9548 C.3       7 UNK         0.0276 
     46 CB         27.9587   35.2441    1.5300 C.3       7 UNK        -0.1927 
     47 C          28.9358   33.7475    3.3645 C.2       7 UNK         0.5013 
     48 O          29.3259   34.7803    3.9116 O.2       7 UNK        -0.5193 
     49 N          29.0522   32.5280    3.9068 N.am      8 UNK        -0.4253 
     50 CA         29.5376   32.1250    5.2360 C.3       8 UNK         0.0242 
     51 CB         28.6615   32.7260    6.3517 C.3       8 UNK        -0.2000 
     52 C          31.0290   32.3870    5.5169 C.2       8 UNK         0.4948 
     53 O          31.6321   31.6117    6.2576 O.2       8 UNK        -0.5275 
     54 N          31.6093   33.4407    4.9272 N.am      9 UNK        -0.4246 
     55 CA         32.9926   33.8942    5.1222 C.3       9 UNK         0.0261 
     56 CB         33.2390   35.1431    4.2608 C.3       9 UNK        -0.1959 
     57 C          34.0681   32.8285    4.8422 C.2       9 UNK         0.5033 
     58 O          35.0941   32.8128    5.5236 O.2       9 UNK        -0.5390 
     59 N          33.8022   31.9380    3.8766 N.am      10 UNK        -0.4215 
     60 CA         34.6543   30.7940    3.5387 C.3       10 UNK         0.0240 
     61 CB         34.2024   30.2049    2.1928 C.3       10 UNK        -0.1982 
     62 C          34.6830   29.6940    4.6170 C.2       10 UNK         0.4970 
     63 O          35.6146   28.8884    4.6142 O.2       10 UNK        -0.4916 
     64 N          33.6773   29.6657    5.5005 N.am      11 UNK        -0.4279 
     65 CA         33.5382   28.6858    6.5872 C.3       11 UNK         0.1003 
     66 C          34.1604   29.1609    7.9317 C.2       11 UNK         0.5709 
     67 N          34.7402   30.3535    8.0182 N.am      11 UNK        -0.7358 
     68 O          34.1360   28.4235    8.9144 O.2       11 UNK        -0.4999 
     69 C69        32.0638   28.2255    6.7646 C.3       12 UNK        -0.0954 
     70 S70        31.2963   27.6741    5.2032 S.3       12 UNK        -0.2268 
     71 C71        31.9128   25.9676    5.1025 C.3       12 UNK         0.0203 
     72 H72        27.2905   16.9199   -2.1957 H         1 UNK         0.0888 
     73 H73        25.5478   17.1640   -2.3321 H         1 UNK         0.0888 
     74 H74        26.6098   17.6078   -3.6711 H         1 UNK         0.0888 
     75 H75        28.2227   18.4546   -0.8608 H         1 UNK         0.3017 
     76 H76        27.7228   21.2888   -1.2215 H         1 UNK         0.0873 
     77 H77        29.5876   20.1345    0.9050 H         1 UNK         0.0745 
     78 H78        30.0119   20.0332   -0.7694 H         1 UNK         0.0745 
     79 H79        29.2196   22.8639    2.0581 H         1 UNK         0.0705 
     80 H80        30.6218   21.8220    2.1726 H         1 UNK         0.0705 
     81 H81        30.3981   23.9706    4.0123 H         1 UNK         0.1334 
     82 H82        33.4575   26.8079    3.0330 H         1 UNK         0.1417 
     83 H83        32.0827   24.0556    0.0610 H         1 UNK         0.1562 
     84 H84        34.0632   25.3651   -0.3599 H         1 UNK         0.0748 
     85 H85        34.8123   26.2264    0.9558 H         1 UNK         0.0748 
     86 H86        31.9926   26.0592   -1.5005 H         1 UNK         0.0940 
     87 H87        32.4216   27.4277   -2.4719 H         1 UNK         0.0940 
     88 H88        29.9949   27.3351   -1.9964 H         1 UNK         0.0703 
     89 H89        30.7846   26.9558    0.7246 H         1 UNK         0.3081 
     90 H90        29.1829   26.0887    2.0923 H         1 UNK         0.0719 
     91 H91        29.6060   28.4762    2.7930 H         1 UNK         0.0809 
     92 H92        28.4733   27.6683    3.8622 H         1 UNK         0.0809 
     93 H93        27.8876   28.8137    2.6555 H         1 UNK         0.0809 
     94 H94        26.4791   26.8220    2.5162 H         1 UNK         0.2990 
     95 H95        25.0301   24.9448    2.6030 H         1 UNK         0.0690 
     96 H96        23.2301   25.4140    0.8960 H         1 UNK         0.0788 
     97 H97        24.4610   25.6382   -0.3463 H         1 UNK         0.0788 
     98 H98        24.3553   26.7583    1.0051 H         1 UNK         0.0788 
     99 H99        25.6619   23.1624    0.3604 H         1 UNK         0.2993 
    100 H100       24.6398   20.3924    2.1185 H         1 UNK         0.0949 
    101 H101       23.2099   19.6273    0.2290 H         1 UNK         0.0767 
    102 H102       22.3371   20.7794    1.2261 H         1 UNK         0.0767 
    103 H103       23.0042   21.2915   -0.3187 H         1 UNK         0.0767 
    104 H104       25.3887   20.7093   -0.6466 H         1 UNK         0.3013 
    105 H105       30.2666   29.6133    0.5224 H         1 UNK         0.3121 
    106 H106       29.9538   31.8607   -1.2835 H         1 UNK         0.0774 
    107 H107       32.1822   31.8811    0.8420 H         1 UNK         0.0815 
    108 H108       32.4905   31.7327   -0.8867 H         1 UNK         0.0815 
    109 H109       31.7671   33.1963   -0.2458 H         1 UNK         0.0815 
    110 H110       29.6154   33.8563    0.2911 H         1 UNK         0.2987 
    111 H111       27.3791   33.2366    1.9939 H         1 UNK         0.0949 
    112 H112       28.8478   35.8696    1.4394 H         1 UNK         0.0806 
    113 H113       27.4380   35.2595    0.5723 H         1 UNK         0.0806 
    114 H114       27.3011   35.7171    2.2608 H         1 UNK         0.0806 
    115 H115       28.8127   31.7571    3.2862 H         1 UNK         0.3010 
    116 H116       29.4125   31.0411    5.2708 H         1 UNK         0.0829 
    117 H117       27.6119   32.4655    6.2154 H         1 UNK         0.0813 
    118 H118       28.9641   32.3486    7.3296 H         1 UNK         0.0813 
    119 H119       28.7362   33.8133    6.3877 H         1 UNK         0.0813 
    120 H120       30.9952   34.0514    4.3941 H         1 UNK         0.3038 
    121 H121       33.0892   34.1788    6.1719 H         1 UNK         0.0769 
    122 H122       33.1142   34.9318    3.1979 H         1 UNK         0.0811 
    123 H123       34.2521   35.5227    4.4021 H         1 UNK         0.0811 
    124 H124       32.5534   35.9488    4.5247 H         1 UNK         0.0811 
    125 H125       32.9288   32.0250    3.3790 H         1 UNK         0.3204 
    126 H126       35.6776   31.1578    3.4242 H         1 UNK         0.0748 
    127 H127       34.3049   30.9310    1.3868 H         1 UNK         0.0771 
    128 H128       34.8128   29.3426    1.9202 H         1 UNK         0.0771 
    129 H129       33.1647   29.8693    2.2222 H         1 UNK         0.0771 
    130 H130       32.9676   30.3909    5.4890 H         1 UNK         0.2980 
    131 H131       34.1107   27.7971    6.3186 H         1 UNK         0.0545 
    132 H132       35.1446   30.6430    8.8944 H         1 UNK         0.3459 
    133 H133       34.7716   30.9683    7.2185 H         1 UNK         0.3459 
    134 H134       31.9952   27.4147    7.4921 H         1 UNK         0.0616 
    135 H135       31.4579   29.0416    7.1614 H         1 UNK         0.0616 
    136 H136       31.3056   25.3325    5.7491 H         1 UNK         0.0634 
    137 H137       32.9316   25.9168    5.4878 H         1 UNK         0.0634 
@<TRIPOS>BOND
     1    1    2 1    
     2    1   72 1    
     3    1   73 1    
     4    1   74 1    
     5    2    3 2    
     6    2    4 am   BACKBONE|DICT|INTERRES
     7    4    5 1    
     8    4   75 1    
     9    5    6 1    
    10    5   35 1    
    11    5   76 1    
    12    6    7 1    
    13    6   77 1    
    14    6   78 1    
    15    7    8 1    
    16    8    9 1    
    17    8   79 1    
    18    8   80 1    
    19    9   10 ar   
    20    9   14 ar   
    21   10   11 ar   
    22   10   81 1    
    23   11   12 ar   
    24   11   71 1    
    25   12   13 ar   
    26   12   82 1    
    27   13   14 ar   
    28   13   15 1    
    29   14   83 1    
    30   15   16 1    
    31   15   84 1    
    32   15   85 1    
    33   16   17 1    
    34   17   18 1    
    35   17   86 1    
    36   17   87 1    
    37   18   19 1    
    38   18   37 1    
    39   18   88 1    
    40   19   20 am   BACKBONE|DICT|INTERRES
    41   19   89 1    
    42   20   21 2    
    43   20   22 1    
    44   22   23 1    
    45   22   24 1    
    46   22   90 1    
    47   23   91 1    
    48   23   92 1    
    49   23   93 1    
    50   24   25 am   BACKBONE|DICT|INTERRES
    51   24   94 1    
    52   25   26 2    
    53   25   27 1    
    54   27   28 1    
    55   27   29 1    
    56   27   95 1    
    57   28   96 1    
    58   28   97 1    
    59   28   98 1    
    60   29   30 am   BACKBONE|DICT|INTERRES
    61   29   99 1    
    62   30   31 2    
    63   30   32 1    
    64   32   33 1    
    65   32   34 1    
    66   32  100 1    
    67   33  101 1    
    68   33  102 1    
    69   33  103 1    
    70   34   35 am   BACKBONE|DICT|INTERRES
    71   34  104 1    
    72   35   36 2    
    73   37   38 2    
    74   37   39 am   BACKBONE|DICT|INTERRES
    75   39   40 1    
    76   39  105 1    
    77   40   41 1    
    78   40   42 1    
    79   40  106 1    
    80   41  107 1    
    81   41  108 1    
    82   41  109 1    
    83   42   43 2    
    84   42   44 am   BACKBONE|DICT|INTERRES
    85   44   45 1    
    86   44  110 1    
    87   45   46 1    
    88   45   47 1    
    89   45  111 1    
    90   46  112 1    
    91   46  113 1    
    92   46  114 1    
    93   47   48 2    
    94   47   49 am   BACKBONE|DICT|INTERRES
    95   49   50 1    
    96   49  115 1    
    97   50   51 1    
    98   50   52 1    
    99   50  116 1    
   100   51  117 1    
   101   51  118 1    
   102   51  119 1    
   103   52   53 2    
   104   52   54 am   BACKBONE|DICT|INTERRES
   105   54   55 1    
   106   54  120 1    
   107   55   56 1    
   108   55   57 1    
   109   55  121 1    
   110   56  122 1    
   111   56  123 1    
   112   56  124 1    
   113   57   58 2    
   114   57   59 am   BACKBONE|DICT|INTERRES
   115   59   60 1    
   116   59  125 1    
   117   60   61 1    
   118   60   62 1    
   119   60  126 1    
   120   61  127 1    
   121   61  128 1    
   122   61  129 1    
   123   62   63 2    
   124   62   64 am   BACKBONE|DICT|INTERRES
   125   64   65 1    
   126   64  130 1    
   127   65   66 1    
   128   65   69 1    
   129   65  131 1    
   130   66   67 am   BACKBONE|DICT|INTERRES
   131   66   68 2    
   132   67  132 1    
   133   67  133 1    
   134   69   70 1    
   135   69  134 1    
   136   69  135 1    
   137   70   71 1    
   138   71  136 1    
   139   71  137 1    
@<TRIPOS>SUBSTRUCTURE
     1 UNK         1 GROUP             0       ****    0 ROOT    
