@<TRIPOS>MOLECULE
3R136
137   139    1
SMALL
USER_CHARGES


@<TRIPOS>ATOM
      1 CA         30.1424   21.4258   -4.1911 C.3       0 UNK        -0.1979 
      2 C          30.2177   22.8696   -3.7161 C.2       0 UNK         0.4864 
      3 O          30.7116   23.7286   -4.4488 O.2       0 UNK        -0.5359 
      4 N          29.7399   23.1398   -2.4941 N.am      1 UNK        -0.4318 
      5 CA         29.6641   24.4801   -1.9043 C.3       1 UNK         0.0824 
      6 C6         29.6121   24.4033   -0.3562 C.3       12 UNK        -0.0944 
      7 S7         30.2545   25.9216    0.4277 S.3       12 UNK        -0.2672 
      8 C8         31.9667   25.4409    0.8334 C.3       12 UNK         0.0333 
      9 C9         32.1230   25.0971    2.3081 C.ar      12 UNK        -0.0807 
     10 C10        32.8762   25.9270    3.1455 C.ar      12 UNK        -0.0894 
     11 C11        33.0147   25.6311    4.5050 C.ar      12 UNK        -0.0804 
     12 C12        32.3740   24.5055    5.0289 C.ar      12 UNK        -0.0824 
     13 C13        31.5934   23.6852    4.2094 C.ar      12 UNK        -0.0762 
     14 C14        31.5037   23.9632    2.8427 C.ar      12 UNK        -0.0782 
     15 C15        30.8000   22.5366    4.8181 C.3       12 UNK         0.0230 
     16 S16        28.9919   22.7903    4.7050 S.3       12 UNK        -0.2608 
     17 C17        28.7784   24.5459    5.1766 C.3       12 UNK        -0.0989 
     18 CA         28.3998   25.4114    3.9426 C.3       5 UNK         0.0716 
     19 N          27.0714   25.1069    3.3958 N.am      5 UNK        -0.4135 
     20 C          25.8752   25.1922    3.9899 C.2       4 UNK         0.5031 
     21 O          25.7049   25.6379    5.1270 O.2       4 UNK        -0.5229 
     22 CA         24.6669   24.7188    3.1537 C.3       4 UNK         0.0329 
     23 CB         23.3666   24.6638    3.9776 C.3       4 UNK        -0.2001 
     24 N          24.4417   25.5571    1.9720 N.am      4 UNK        -0.4303 
     25 C          25.2098   25.5822    0.8751 C.2       3 UNK         0.5044 
     26 O          26.1976   24.8580    0.7252 O.2       3 UNK        -0.5152 
     27 CA         24.8426   26.5937   -0.2212 C.3       3 UNK         0.0319 
     28 CB         24.1788   27.8755    0.3303 C.3       3 UNK        -0.2001 
     29 N          26.0628   26.9051   -0.9623 N.am      3 UNK        -0.4354 
     30 C          26.1337   27.4378   -2.1869 C.2       2 UNK         0.4964 
     31 O          25.1521   27.8151   -2.8280 O.2       2 UNK        -0.5047 
     32 CA         27.5343   27.5712   -2.8159 C.3       2 UNK         0.0288 
     33 CB         28.0796   28.9959   -2.6204 C.3       2 UNK        -0.2113 
     34 N          28.5233   26.6119   -2.3114 N.am      2 UNK        -0.4145 
     35 C          28.4831   25.2848   -2.4964 C.2       1 UNK         0.5006 
     36 O          27.5697   24.7065   -3.0928 O.2       1 UNK        -0.5103 
     37 C          28.6400   26.9138    4.1915 C.2       5 UNK         0.5055 
     38 O          29.6286   27.4584    3.7001 O.2       5 UNK        -0.5220 
     39 N          27.7385   27.5734    4.9267 N.am      6 UNK        -0.4450 
     40 CA         27.8182   28.9801    5.3293 C.3       6 UNK         0.0367 
     41 CB         26.8920   29.1971    6.5404 C.3       6 UNK        -0.1929 
     42 C          27.5337   29.9660    4.1759 C.2       6 UNK         0.5070 
     43 O          26.6315   30.7981    4.2923 O.2       6 UNK        -0.5237 
     44 N          28.2854   29.8488    3.0742 N.am      7 UNK        -0.4739 
     45 CA         28.1153   30.6618    1.8678 C.3       7 UNK         0.0276 
     46 CB         26.9821   30.0744    1.0064 C.3       7 UNK        -0.1927 
     47 C          29.3924   30.8628    1.0355 C.2       7 UNK         0.5013 
     48 O          29.3403   31.6556    0.0932 O.2       7 UNK        -0.5193 
     49 N          30.5041   30.1812    1.3479 N.am      8 UNK        -0.4253 
     50 CA         31.7546   30.3008    0.5945 C.3       8 UNK         0.0242 
     51 CB         31.7159   29.3865   -0.6453 C.3       8 UNK        -0.2000 
     52 C          32.9585   29.9775    1.4838 C.2       8 UNK         0.4948 
     53 O          32.7978   29.3711    2.5452 O.2       8 UNK        -0.5275 
     54 N          34.1462   30.3866    1.0131 N.am      9 UNK        -0.4246 
     55 CA         35.4527   30.2560    1.6692 C.3       9 UNK         0.0261 
     56 CB         35.8820   28.7707    1.7278 C.3       9 UNK        -0.1959 
     57 C          35.4764   30.9738    3.0343 C.2       9 UNK         0.5033 
     58 O          34.8546   32.0303    3.1750 O.2       9 UNK        -0.5390 
     59 N          36.1650   30.3891    4.0242 N.am      10 UNK        -0.4215 
     60 CA         36.2215   30.8713    5.4096 C.3       10 UNK         0.0240 
     61 CB         37.2512   30.0363    6.1889 C.3       10 UNK        -0.1982 
     62 C          34.8603   30.8558    6.1340 C.2       10 UNK         0.4970 
     63 O          34.7025   31.5663    7.1275 O.2       10 UNK        -0.4916 
     64 N          33.9130   30.0585    5.6267 N.am      11 UNK        -0.4279 
     65 CA         32.5286   29.9751    6.1037 C.3       11 UNK         0.1003 
     66 C          31.6019   31.0793    5.5139 C.2       11 UNK         0.5709 
     67 N          32.0500   31.9125    4.5800 N.am      11 UNK        -0.7358 
     68 O          30.4562   31.2046    5.9373 O.2       11 UNK        -0.4999 
     69 C69        31.9480   28.5537    5.8844 C.3       12 UNK        -0.0954 
     70 S70        32.8963   27.2662    6.7623 S.3       12 UNK        -0.2268 
     71 C71        33.8615   26.5180    5.4087 C.3       12 UNK         0.0203 
     72 H72        31.1405   21.0530   -4.4194 H         1 UNK         0.0888 
     73 H73        29.7000   20.7716   -3.4400 H         1 UNK         0.0888 
     74 H74        29.5383   21.3601   -5.0957 H         1 UNK         0.0888 
     75 H75        29.3101   22.4000   -1.9577 H         1 UNK         0.3017 
     76 H76        30.5827   25.0002   -2.1873 H         1 UNK         0.0873 
     77 H77        28.5993   24.2132    0.0001 H         1 UNK         0.0745 
     78 H78        30.2034   23.5586   -0.0015 H         1 UNK         0.0745 
     79 H79        32.2884   24.5987    0.2195 H         1 UNK         0.0705 
     80 H80        32.6240   26.2707    0.5695 H         1 UNK         0.0705 
     81 H81        33.3494   26.8092    2.7387 H         1 UNK         0.1334 
     82 H82        32.4581   24.2911    6.0857 H         1 UNK         0.1417 
     83 H83        30.8998   23.3284    2.2101 H         1 UNK         0.1562 
     84 H84        31.0658   22.3981    5.8673 H         1 UNK         0.0748 
     85 H85        31.0617   21.6069    4.3112 H         1 UNK         0.0748 
     86 H86        29.6901   24.9117    5.6508 H         1 UNK         0.0940 
     87 H87        28.0114   24.6086    5.9495 H         1 UNK         0.0940 
     88 H88        29.0861   25.1520    3.1373 H         1 UNK         0.0703 
     89 H89        27.0638   24.8080    2.4240 H         1 UNK         0.3081 
     90 H90        24.8875   23.7030    2.8183 H         1 UNK         0.0719 
     91 H91        23.0693   25.6516    4.3322 H         1 UNK         0.0809 
     92 H92        22.5426   24.2543    3.3930 H         1 UNK         0.0809 
     93 H93        23.4870   24.0258    4.8543 H         1 UNK         0.0809 
     94 H94        23.6686   26.2043    2.0258 H         1 UNK         0.2990 
     95 H95        24.1481   26.0968   -0.9014 H         1 UNK         0.0690 
     96 H96        23.1623   27.6755    0.6705 H         1 UNK         0.0788 
     97 H97        24.1059   28.6559   -0.4271 H         1 UNK         0.0788 
     98 H98        24.7315   28.2832    1.1757 H         1 UNK         0.0788 
     99 H99        26.9080   26.5456   -0.5372 H         1 UNK         0.2993 
    100 H100       27.4187   27.3938   -3.8874 H         1 UNK         0.0949 
    101 H101       29.0043   29.1463   -3.1778 H         1 UNK         0.0767 
    102 H102       27.3663   29.7420   -2.9737 H         1 UNK         0.0767 
    103 H103       28.2830   29.2107   -1.5710 H         1 UNK         0.0767 
    104 H104       29.2916   26.9937   -1.7771 H         1 UNK         0.3013 
    105 H105       26.9201   27.0492    5.2297 H         1 UNK         0.3121 
    106 H106       28.8365   29.1770    5.6612 H         1 UNK         0.0774 
    107 H107       26.9615   30.2223    6.9067 H         1 UNK         0.0815 
    108 H108       25.8479   29.0082    6.2876 H         1 UNK         0.0815 
    109 H109       27.1614   28.5416    7.3686 H         1 UNK         0.0815 
    110 H110       28.9690   29.0955    3.0561 H         1 UNK         0.2987 
    111 H111       27.8193   31.6684    2.1719 H         1 UNK         0.0949 
    112 H112       27.1657   29.0276    0.7639 H         1 UNK         0.0806 
    113 H113       26.0274   30.1430    1.5263 H         1 UNK         0.0806 
    114 H114       26.8681   30.6160    0.0664 H         1 UNK         0.0806 
    115 H115       30.5555   29.5817    2.1619 H         1 UNK         0.3010 
    116 H116       31.8725   31.3368    0.2683 H         1 UNK         0.0829 
    117 H117       30.8825   29.6374   -1.3011 H         1 UNK         0.0813 
    118 H118       32.6272   29.4792   -1.2369 H         1 UNK         0.0813 
    119 H119       31.6177   28.3399   -0.3638 H         1 UNK         0.0813 
    120 H120       34.1554   30.9023    0.1442 H         1 UNK         0.3038 
    121 H121       36.1673   30.7845    1.0366 H         1 UNK         0.0769 
    122 H122       35.2776   28.1961    2.4299 H         1 UNK         0.0811 
    123 H123       36.9270   28.6673    2.0221 H         1 UNK         0.0811 
    124 H124       35.7850   28.2975    0.7505 H         1 UNK         0.0811 
    125 H125       36.6549   29.5292    3.8232 H         1 UNK         0.3204 
    126 H126       36.5641   31.9080    5.3875 H         1 UNK         0.0748 
    127 H127       37.3442   30.3909    7.2165 H         1 UNK         0.0771 
    128 H128       36.9676   28.9837    6.2328 H         1 UNK         0.0771 
    129 H129       38.2410   30.1009    5.7364 H         1 UNK         0.0771 
    130 H130       34.1041   29.5525    4.7747 H         1 UNK         0.2980 
    131 H131       32.5347   30.1521    7.1808 H         1 UNK         0.0545 
    132 H132       31.4366   32.6298    4.2303 H         1 UNK         0.3459 
    133 H133       32.9894   31.8281    4.2124 H         1 UNK         0.3459 
    134 H134       30.9257   28.4967    6.2577 H         1 UNK         0.0616 
    135 H135       31.8980   28.3151    4.8215 H         1 UNK         0.0616 
    136 H136       34.3530   27.3056    4.8362 H         1 UNK         0.0634 
    137 H137       34.6584   25.9136    5.8437 H         1 UNK         0.0634 
@<TRIPOS>BOND
     1    1    2 1    
     2    1   72 1    
     3    1   73 1    
     4    1   74 1    
     5    2    3 2    
     6    2    4 am   BACKBONE|DICT|INTERRES
     7    4    5 1    
     8    4   75 1    
     9    5    6 1    
    10    5   35 1    
    11    5   76 1    
    12    6    7 1    
    13    6   77 1    
    14    6   78 1    
    15    7    8 1    
    16    8    9 1    
    17    8   79 1    
    18    8   80 1    
    19    9   10 ar   
    20    9   14 ar   
    21   10   11 ar   
    22   10   81 1    
    23   11   12 ar   
    24   11   71 1    
    25   12   13 ar   
    26   12   82 1    
    27   13   14 ar   
    28   13   15 1    
    29   14   83 1    
    30   15   16 1    
    31   15   84 1    
    32   15   85 1    
    33   16   17 1    
    34   17   18 1    
    35   17   86 1    
    36   17   87 1    
    37   18   19 1    
    38   18   37 1    
    39   18   88 1    
    40   19   20 am   BACKBONE|DICT|INTERRES
    41   19   89 1    
    42   20   21 2    
    43   20   22 1    
    44   22   23 1    
    45   22   24 1    
    46   22   90 1    
    47   23   91 1    
    48   23   92 1    
    49   23   93 1    
    50   24   25 am   BACKBONE|DICT|INTERRES
    51   24   94 1    
    52   25   26 2    
    53   25   27 1    
    54   27   28 1    
    55   27   29 1    
    56   27   95 1    
    57   28   96 1    
    58   28   97 1    
    59   28   98 1    
    60   29   30 am   BACKBONE|DICT|INTERRES
    61   29   99 1    
    62   30   31 2    
    63   30   32 1    
    64   32   33 1    
    65   32   34 1    
    66   32  100 1    
    67   33  101 1    
    68   33  102 1    
    69   33  103 1    
    70   34   35 am   BACKBONE|DICT|INTERRES
    71   34  104 1    
    72   35   36 2    
    73   37   38 2    
    74   37   39 am   BACKBONE|DICT|INTERRES
    75   39   40 1    
    76   39  105 1    
    77   40   41 1    
    78   40   42 1    
    79   40  106 1    
    80   41  107 1    
    81   41  108 1    
    82   41  109 1    
    83   42   43 2    
    84   42   44 am   BACKBONE|DICT|INTERRES
    85   44   45 1    
    86   44  110 1    
    87   45   46 1    
    88   45   47 1    
    89   45  111 1    
    90   46  112 1    
    91   46  113 1    
    92   46  114 1    
    93   47   48 2    
    94   47   49 am   BACKBONE|DICT|INTERRES
    95   49   50 1    
    96   49  115 1    
    97   50   51 1    
    98   50   52 1    
    99   50  116 1    
   100   51  117 1    
   101   51  118 1    
   102   51  119 1    
   103   52   53 2    
   104   52   54 am   BACKBONE|DICT|INTERRES
   105   54   55 1    
   106   54  120 1    
   107   55   56 1    
   108   55   57 1    
   109   55  121 1    
   110   56  122 1    
   111   56  123 1    
   112   56  124 1    
   113   57   58 2    
   114   57   59 am   BACKBONE|DICT|INTERRES
   115   59   60 1    
   116   59  125 1    
   117   60   61 1    
   118   60   62 1    
   119   60  126 1    
   120   61  127 1    
   121   61  128 1    
   122   61  129 1    
   123   62   63 2    
   124   62   64 am   BACKBONE|DICT|INTERRES
   125   64   65 1    
   126   64  130 1    
   127   65   66 1    
   128   65   69 1    
   129   65  131 1    
   130   66   67 am   BACKBONE|DICT|INTERRES
   131   66   68 2    
   132   67  132 1    
   133   67  133 1    
   134   69   70 1    
   135   69  134 1    
   136   69  135 1    
   137   70   71 1    
   138   71  136 1    
   139   71  137 1    
@<TRIPOS>SUBSTRUCTURE
     1 UNK         1 GROUP             0       ****    0 ROOT    
