@<TRIPOS>MOLECULE
3R136
137   139    1
SMALL
USER_CHARGES


@<TRIPOS>ATOM
      1 CA         31.5367   25.4284   -2.3770 C.3       0 UNK        -0.1979 
      2 C          31.1578   24.5762   -1.1746 C.2       0 UNK         0.4864 
      3 O          31.8322   24.6412   -0.1503 O.2       0 UNK        -0.5359 
      4 N          30.0853   23.7875   -1.3003 N.am      1 UNK        -0.4318 
      5 CA         29.5032   22.9418   -0.2548 C.3       1 UNK         0.0824 
      6 C6         29.9244   21.4489   -0.3927 C.3       12 UNK        -0.0944 
      7 S7         31.7291   21.1654   -0.3315 S.3       12 UNK        -0.2672 
      8 C8         31.9895   20.5666    1.3692 C.3       12 UNK         0.0333 
      9 C9         31.7867   21.6660    2.4023 C.ar      12 UNK        -0.0807 
     10 C10        32.8053   22.5876    2.6655 C.ar      12 UNK        -0.0894 
     11 C11        32.6215   23.5995    3.6142 C.ar      12 UNK        -0.0804 
     12 C12        31.4053   23.6885    4.2994 C.ar      12 UNK        -0.0824 
     13 C13        30.3838   22.7690    4.0471 C.ar      12 UNK        -0.0762 
     14 C14        30.5836   21.7549    3.1062 C.ar      12 UNK        -0.0782 
     15 C15        29.0609   22.8554    4.7875 C.3       12 UNK         0.0230 
     16 S16        27.7625   23.5177    3.7005 S.3       12 UNK        -0.2608 
     17 C17        27.5594   25.2335    4.2766 C.3       12 UNK        -0.0989 
     18 CA         28.2679   26.2851    3.3862 C.3       5 UNK         0.0716 
     19 N          27.7177   26.3696    2.0240 N.am      5 UNK        -0.4135 
     20 C          28.2469   27.1438    1.0598 C.2       4 UNK         0.5031 
     21 O          29.3291   27.7199    1.1880 O.2       4 UNK        -0.5229 
     22 CA         27.4649   27.3556   -0.2515 C.3       4 UNK         0.0329 
     23 CB         28.3731   27.2445   -1.4875 C.3       4 UNK        -0.2001 
     24 N          26.3379   26.4394   -0.4139 N.am      4 UNK        -0.4303 
     25 C          25.0555   26.7434   -0.1684 C.2       3 UNK         0.5044 
     26 O          24.6744   27.8454    0.2266 O.2       3 UNK        -0.5152 
     27 CA         24.0138   25.6283   -0.3912 C.3       3 UNK         0.0319 
     28 CB         23.3295   25.7976   -1.7570 C.3       3 UNK        -0.2001 
     29 N          24.5691   24.2745   -0.2976 N.am      3 UNK        -0.4354 
     30 C          25.1307   23.7568    0.8029 C.2       2 UNK         0.4964 
     31 O          25.1835   24.3554    1.8767 O.2       2 UNK        -0.5047 
     32 CA         25.7783   22.3651    0.6796 C.3       2 UNK         0.0288 
     33 CB         25.2043   21.5108   -0.4741 C.3       2 UNK        -0.2113 
     34 N          27.2433   22.4410    0.5843 N.am      2 UNK        -0.4145 
     35 C          27.9683   23.0944   -0.3369 C.2       1 UNK         0.5006 
     36 O          27.4669   23.7789   -1.2363 O.2       1 UNK        -0.5103 
     37 C          28.1796   27.6702    4.0620 C.2       5 UNK         0.5055 
     38 O          27.0740   28.2000    4.1944 O.2       5 UNK        -0.5220 
     39 N          29.3365   28.2185    4.4645 N.am      6 UNK        -0.4450 
     40 CA         29.5196   29.5462    5.0686 C.3       6 UNK         0.0367 
     41 CB         28.9680   29.5640    6.5099 C.3       6 UNK        -0.1929 
     42 C          28.9595   30.6900    4.1952 C.2       6 UNK         0.5070 
     43 O          28.2302   31.5497    4.6925 O.2       6 UNK        -0.5237 
     44 N          29.2979   30.6637    2.8971 N.am      7 UNK        -0.4739 
     45 CA         28.8868   31.6549    1.8959 C.3       7 UNK         0.0276 
     46 CB         29.3455   31.1885    0.5049 C.3       7 UNK        -0.1927 
     47 C          29.3982   33.0810    2.1750 C.2       7 UNK         0.5013 
     48 O          28.7179   34.0442    1.8178 O.2       7 UNK        -0.5193 
     49 N          30.5706   33.1900    2.8084 N.am      8 UNK        -0.4253 
     50 CA         31.1737   34.4377    3.2686 C.3       8 UNK         0.0242 
     51 CB         32.0699   35.0242    2.1559 C.3       8 UNK        -0.2000 
     52 C          31.8971   34.1484    4.5931 C.2       8 UNK         0.4948 
     53 O          31.3231   33.4862    5.4595 O.2       8 UNK        -0.5275 
     54 N          33.1516   34.6033    4.7266 N.am      9 UNK        -0.4246 
     55 CA         34.0455   34.2769    5.8471 C.3       9 UNK         0.0261 
     56 CB         35.2717   35.2034    5.7984 C.3       9 UNK        -0.1959 
     57 C          34.4862   32.7976    5.8688 C.2       9 UNK         0.5033 
     58 O          34.9446   32.3161    6.9058 O.2       9 UNK        -0.5390 
     59 N          34.3308   32.1115    4.7325 N.am      10 UNK        -0.4215 
     60 CA         34.5046   30.6789    4.5386 C.3       10 UNK         0.0240 
     61 CB         35.8959   30.4143    3.9338 C.3       10 UNK        -0.1982 
     62 C          33.3794   30.1889    3.6144 C.2       10 UNK         0.4970 
     63 O          32.5778   30.9968    3.1312 O.2       10 UNK        -0.4916 
     64 N          33.3339   28.8730    3.3894 N.am      11 UNK        -0.4279 
     65 CA         32.4382   28.2304    2.4206 C.3       11 UNK         0.1003 
     66 C          32.7691   28.5791    0.9405 C.2       11 UNK         0.5709 
     67 N          31.7826   28.4986    0.0601 N.am      11 UNK        -0.7358 
     68 O          33.8995   28.9113    0.5866 O.2       11 UNK        -0.4999 
     69 C69        32.3367   26.7043    2.6702 C.3       12 UNK        -0.0954 
     70 S70        33.9346   25.8226    2.5862 S.3       12 UNK        -0.2268 
     71 C71        33.7430   24.5870    3.9084 C.3       12 UNK         0.0203 
     72 H72        30.8522   25.2843   -3.2128 H         1 UNK         0.0888 
     73 H73        31.5241   26.4834   -2.1059 H         1 UNK         0.0888 
     74 H74        32.5418   25.1751   -2.7129 H         1 UNK         0.0888 
     75 H75        29.5226   23.8320   -2.1398 H         1 UNK         0.3017 
     76 H76        29.8082   23.3154    0.7256 H         1 UNK         0.0873 
     77 H77        29.4558   20.8371    0.3792 H         1 UNK         0.0745 
     78 H78        29.5676   21.0477   -1.3434 H         1 UNK         0.0745 
     79 H79        33.0062   20.1795    1.4503 H         1 UNK         0.0705 
     80 H80        31.3285   19.7208    1.5650 H         1 UNK         0.0705 
     81 H81        33.7391   22.5247    2.1236 H         1 UNK         0.1334 
     82 H82        31.2558   24.4691    5.0325 H         1 UNK         0.1417 
     83 H83        29.7947   21.0400    2.9170 H         1 UNK         0.1562 
     84 H84        29.1565   23.4503    5.6965 H         1 UNK         0.0748 
     85 H85        28.7664   21.8567    5.1135 H         1 UNK         0.0748 
     86 H86        27.9070   25.3026    5.3090 H         1 UNK         0.0940 
     87 H87        26.4874   25.4390    4.3164 H         1 UNK         0.0940 
     88 H88        29.3183   25.9995    3.2984 H         1 UNK         0.0703 
     89 H89        26.8221   25.9224    1.8737 H         1 UNK         0.3081 
     90 H90        27.0991   28.3837   -0.2150 H         1 UNK         0.0719 
     91 H91        29.2231   27.9247   -1.4248 H         1 UNK         0.0809 
     92 H92        27.8295   27.4973   -2.3978 H         1 UNK         0.0809 
     93 H93        28.7629   26.2360   -1.6053 H         1 UNK         0.0809 
     94 H94        26.5633   25.5018   -0.7347 H         1 UNK         0.2990 
     95 H95        23.2557   25.7309    0.3881 H         1 UNK         0.0690 
     96 H96        22.5316   25.0677   -1.8953 H         1 UNK         0.0788 
     97 H97        24.0370   25.6839   -2.5795 H         1 UNK         0.0788 
     98 H98        22.8799   26.7874   -1.8483 H         1 UNK         0.0788 
     99 H99        24.6002   23.7317   -1.1488 H         1 UNK         0.2993 
    100 H100       25.5543   21.8480    1.6142 H         1 UNK         0.0949 
    101 H101       24.1173   21.4418   -0.4099 H         1 UNK         0.0767 
    102 H102       25.4546   21.9110   -1.4571 H         1 UNK         0.0767 
    103 H103       25.5903   20.4922   -0.4305 H         1 UNK         0.0767 
    104 H104       27.7374   21.9695    1.3284 H         1 UNK         0.3013 
    105 H105       30.1841   27.6931    4.3125 H         1 UNK         0.3121 
    106 H106       30.5959   29.7154    5.1299 H         1 UNK         0.0774 
    107 H107       29.1913   30.5123    7.0005 H         1 UNK         0.0815 
    108 H108       27.8854   29.4344    6.5308 H         1 UNK         0.0815 
    109 H109       29.4126   28.7746    7.1157 H         1 UNK         0.0815 
    110 H110       29.8591   29.8952    2.5603 H         1 UNK         0.2987 
    111 H111       27.7954   31.6951    1.9028 H         1 UNK         0.0949 
    112 H112       28.9016   30.2300    0.2385 H         1 UNK         0.0806 
    113 H113       29.0499   31.9032   -0.2645 H         1 UNK         0.0806 
    114 H114       30.4301   31.0841    0.4532 H         1 UNK         0.0806 
    115 H115       31.0605   32.3396    3.0728 H         1 UNK         0.3010 
    116 H116       30.3864   35.1583    3.5001 H         1 UNK         0.0829 
    117 H117       31.4957   35.1968    1.2452 H         1 UNK         0.0813 
    118 H118       32.4911   35.9875    2.4460 H         1 UNK         0.0813 
    119 H119       32.8926   34.3551    1.9001 H         1 UNK         0.0813 
    120 H120       33.5467   35.1523    3.9762 H         1 UNK         0.3038 
    121 H121       33.5067   34.4686    6.7775 H         1 UNK         0.0769 
    122 H122       35.8489   35.0631    4.8835 H         1 UNK         0.0811 
    123 H123       35.9409   35.0090    6.6379 H         1 UNK         0.0811 
    124 H124       34.9804   36.2524    5.8562 H         1 UNK         0.0811 
    125 H125       33.8726   32.5727    3.9581 H         1 UNK         0.3204 
    126 H126       34.4092   30.1586    5.4941 H         1 UNK         0.0748 
    127 H127       36.0845   29.3464    3.8184 H         1 UNK         0.0771 
    128 H128       36.0004   30.8733    2.9497 H         1 UNK         0.0771 
    129 H129       36.6852   30.8117    4.5724 H         1 UNK         0.0771 
    130 H130       34.0455   28.2774    3.7857 H         1 UNK         0.2980 
    131 H131       31.4471   28.6443    2.6065 H         1 UNK         0.0545 
    132 H132       30.8572   28.2003    0.3627 H         1 UNK         0.3459 
    133 H133       31.9612   28.7200   -0.9050 H         1 UNK         0.3459 
    134 H134       31.9017   26.5387    3.6555 H         1 UNK         0.0616 
    135 H135       31.6452   26.2419    1.9641 H         1 UNK         0.0616 
    136 H136       34.6822   24.0430    4.0178 H         1 UNK         0.0634 
    137 H137       33.5743   25.0975    4.8578 H         1 UNK         0.0634 
@<TRIPOS>BOND
     1    1    2 1    
     2    1   72 1    
     3    1   73 1    
     4    1   74 1    
     5    2    3 2    
     6    2    4 am   BACKBONE|DICT|INTERRES
     7    4    5 1    
     8    4   75 1    
     9    5    6 1    
    10    5   35 1    
    11    5   76 1    
    12    6    7 1    
    13    6   77 1    
    14    6   78 1    
    15    7    8 1    
    16    8    9 1    
    17    8   79 1    
    18    8   80 1    
    19    9   10 ar   
    20    9   14 ar   
    21   10   11 ar   
    22   10   81 1    
    23   11   12 ar   
    24   11   71 1    
    25   12   13 ar   
    26   12   82 1    
    27   13   14 ar   
    28   13   15 1    
    29   14   83 1    
    30   15   16 1    
    31   15   84 1    
    32   15   85 1    
    33   16   17 1    
    34   17   18 1    
    35   17   86 1    
    36   17   87 1    
    37   18   19 1    
    38   18   37 1    
    39   18   88 1    
    40   19   20 am   BACKBONE|DICT|INTERRES
    41   19   89 1    
    42   20   21 2    
    43   20   22 1    
    44   22   23 1    
    45   22   24 1    
    46   22   90 1    
    47   23   91 1    
    48   23   92 1    
    49   23   93 1    
    50   24   25 am   BACKBONE|DICT|INTERRES
    51   24   94 1    
    52   25   26 2    
    53   25   27 1    
    54   27   28 1    
    55   27   29 1    
    56   27   95 1    
    57   28   96 1    
    58   28   97 1    
    59   28   98 1    
    60   29   30 am   BACKBONE|DICT|INTERRES
    61   29   99 1    
    62   30   31 2    
    63   30   32 1    
    64   32   33 1    
    65   32   34 1    
    66   32  100 1    
    67   33  101 1    
    68   33  102 1    
    69   33  103 1    
    70   34   35 am   BACKBONE|DICT|INTERRES
    71   34  104 1    
    72   35   36 2    
    73   37   38 2    
    74   37   39 am   BACKBONE|DICT|INTERRES
    75   39   40 1    
    76   39  105 1    
    77   40   41 1    
    78   40   42 1    
    79   40  106 1    
    80   41  107 1    
    81   41  108 1    
    82   41  109 1    
    83   42   43 2    
    84   42   44 am   BACKBONE|DICT|INTERRES
    85   44   45 1    
    86   44  110 1    
    87   45   46 1    
    88   45   47 1    
    89   45  111 1    
    90   46  112 1    
    91   46  113 1    
    92   46  114 1    
    93   47   48 2    
    94   47   49 am   BACKBONE|DICT|INTERRES
    95   49   50 1    
    96   49  115 1    
    97   50   51 1    
    98   50   52 1    
    99   50  116 1    
   100   51  117 1    
   101   51  118 1    
   102   51  119 1    
   103   52   53 2    
   104   52   54 am   BACKBONE|DICT|INTERRES
   105   54   55 1    
   106   54  120 1    
   107   55   56 1    
   108   55   57 1    
   109   55  121 1    
   110   56  122 1    
   111   56  123 1    
   112   56  124 1    
   113   57   58 2    
   114   57   59 am   BACKBONE|DICT|INTERRES
   115   59   60 1    
   116   59  125 1    
   117   60   61 1    
   118   60   62 1    
   119   60  126 1    
   120   61  127 1    
   121   61  128 1    
   122   61  129 1    
   123   62   63 2    
   124   62   64 am   BACKBONE|DICT|INTERRES
   125   64   65 1    
   126   64  130 1    
   127   65   66 1    
   128   65   69 1    
   129   65  131 1    
   130   66   67 am   BACKBONE|DICT|INTERRES
   131   66   68 2    
   132   67  132 1    
   133   67  133 1    
   134   69   70 1    
   135   69  134 1    
   136   69  135 1    
   137   70   71 1    
   138   71  136 1    
   139   71  137 1    
@<TRIPOS>SUBSTRUCTURE
     1 UNK         1 GROUP             0       ****    0 ROOT    
