@<TRIPOS>MOLECULE
3R136
137   139    1
SMALL
USER_CHARGES


@<TRIPOS>ATOM
      1 CA         28.3725   28.2882   -3.3409 C.3       0 UNK        -0.1979 
      2 C          28.9966   27.0556   -2.7052 C.2       0 UNK         0.4864 
      3 O          29.5473   26.2096   -3.4108 O.2       0 UNK        -0.5359 
      4 N          28.8957   26.9377   -1.3760 N.am      1 UNK        -0.4318 
      5 CA         29.3941   25.8626   -0.5107 C.3       1 UNK         0.0824 
      6 C6         30.9280   25.6205   -0.5931 C.3       12 UNK        -0.0944 
      7 S7         31.7181   25.8033    1.0385 S.3       12 UNK        -0.2672 
      8 C8         31.6106   24.1102    1.6993 C.3       12 UNK         0.0333 
      9 C9         31.0594   24.1173    3.1167 C.ar      12 UNK        -0.0807 
     10 C10        31.8369   24.6214    4.1627 C.ar      12 UNK        -0.0894 
     11 C11        31.3412   24.6459    5.4685 C.ar      12 UNK        -0.0804 
     12 C12        30.0551   24.1614    5.7260 C.ar      12 UNK        -0.0824 
     13 C13        29.2688   23.6434    4.6900 C.ar      12 UNK        -0.0762 
     14 C14        29.7811   23.6184    3.3883 C.ar      12 UNK        -0.0782 
     15 C15        27.8775   23.0900    4.9901 C.3       12 UNK         0.0230 
     16 S16        26.5464   23.8665    4.0083 S.3       12 UNK        -0.2608 
     17 C17        26.8037   25.6381    4.3518 C.3       12 UNK        -0.0989 
     18 CA         27.2606   26.3790    3.0713 C.3       5 UNK         0.0716 
     19 N          26.1370   26.6131    2.1560 N.am      5 UNK        -0.4135 
     20 C          26.1448   27.3126    1.0122 C.2       4 UNK         0.5031 
     21 O          27.1260   27.9178    0.5714 O.2       4 UNK        -0.5229 
     22 CA         24.8401   27.2780    0.1941 C.3       4 UNK         0.0329 
     23 CB         24.8808   28.2256   -1.0195 C.3       4 UNK        -0.2001 
     24 N          24.5635   25.9219   -0.2814 N.am      4 UNK        -0.4303 
     25 C          24.0537   24.9193    0.4434 C.2       3 UNK         0.5044 
     26 O          23.6762   25.0529    1.6083 O.2       3 UNK        -0.5152 
     27 CA         23.9918   23.5290   -0.2186 C.3       3 UNK         0.0319 
     28 CB         22.8127   23.4246   -1.2060 C.3       3 UNK        -0.2001 
     29 N          25.2639   23.1059   -0.8272 N.am      3 UNK        -0.4354 
     30 C          25.8957   23.6241   -1.8902 C.2       2 UNK         0.4964 
     31 O          25.4486   24.5392   -2.5855 O.2       2 UNK        -0.5047 
     32 CA         27.3077   23.0898   -2.1782 C.3       2 UNK         0.0288 
     33 CB         27.4627   22.6700   -3.6495 C.3       2 UNK        -0.2113 
     34 N          28.2831   24.1334   -1.8679 N.am      2 UNK        -0.4145 
     35 C          28.5693   24.5668   -0.6336 C.2       1 UNK         0.5006 
     36 O          28.1684   24.0084    0.3872 O.2       1 UNK        -0.5103 
     37 C          28.0386   27.6568    3.4317 C.2       5 UNK         0.5055 
     38 O          27.4409   28.7212    3.6024 O.2       5 UNK        -0.5220 
     39 N          29.3653   27.5008    3.5250 N.am      6 UNK        -0.4450 
     40 CA         30.3982   28.5189    3.7400 C.3       6 UNK         0.0367 
     41 CB         30.1075   29.4057    4.9683 C.3       6 UNK        -0.1929 
     42 C          30.7049   29.3880    2.5123 C.2       6 UNK         0.5070 
     43 O          31.7925   29.9637    2.4829 O.2       6 UNK        -0.5237 
     44 N          29.7843   29.4964    1.5404 N.am      7 UNK        -0.4739 
     45 CA         29.8412   30.2947    0.3019 C.3       7 UNK         0.0276 
     46 CB         30.9868   29.8202   -0.6147 C.3       7 UNK        -0.1927 
     47 C          29.9146   31.8182    0.5339 C.2       7 UNK         0.5013 
     48 O          29.0907   32.5608   -0.0005 O.2       7 UNK        -0.5193 
     49 N          30.8881   32.2388    1.3424 N.am      8 UNK        -0.4253 
     50 CA         31.0943   33.5790    1.8705 C.3       8 UNK         0.0242 
     51 CB         31.9801   34.4106    0.9248 C.3       8 UNK        -0.2000 
     52 C          31.6969   33.4455    3.2748 C.2       8 UNK         0.4948 
     53 O          31.0722   33.8863    4.2400 O.2       8 UNK        -0.5275 
     54 N          32.8721   32.8040    3.3705 N.am      9 UNK        -0.4246 
     55 CA         33.5782   32.5256    4.6255 C.3       9 UNK         0.0261 
     56 CB         34.2283   33.8149    5.1753 C.3       9 UNK        -0.1959 
     57 C          34.5944   31.3777    4.4633 C.2       9 UNK         0.5033 
     58 O          35.6722   31.4300    5.0598 O.2       9 UNK        -0.5390 
     59 N          34.2555   30.3527    3.6654 N.am      10 UNK        -0.4215 
     60 CA         35.1289   29.2129    3.3495 C.3       10 UNK         0.0240 
     61 CB         34.5071   28.3879    2.2098 C.3       10 UNK        -0.1982 
     62 C          35.4479   28.3000    4.5477 C.2       10 UNK         0.4970 
     63 O          36.4424   27.5751    4.4949 O.2       10 UNK        -0.4916 
     64 N          34.6153   28.3456    5.5959 N.am      11 UNK        -0.4279 
     65 CA         34.8011   27.5931    6.8471 C.3       11 UNK         0.1003 
     66 C          35.9678   28.1095    7.7408 C.2       11 UNK         0.5709 
     67 N          36.5402   29.2812    7.4832 N.am      11 UNK        -0.7358 
     68 O          36.3636   27.4291    8.6842 O.2       11 UNK        -0.4999 
     69 C69        33.4884   27.4765    7.6718 C.3       12 UNK        -0.0954 
     70 S70        32.0333   27.0051    6.6810 S.3       12 UNK        -0.2268 
     71 C71        32.2024   25.2013    6.5919 C.3       12 UNK         0.0203 
     72 H72        27.5723   27.9954   -4.0201 H         1 UNK         0.0888 
     73 H73        27.9550   28.9638   -2.5941 H         1 UNK         0.0888 
     74 H74        29.1224   28.8362   -3.9107 H         1 UNK         0.0888 
     75 H75        28.3400   27.6185   -0.8632 H         1 UNK         0.3017 
     76 H76        29.1668   26.2389    0.4868 H         1 UNK         0.0873 
     77 H77        31.1803   24.6506   -1.0265 H         1 UNK         0.0745 
     78 H78        31.4014   26.3530   -1.2480 H         1 UNK         0.0745 
     79 H79        32.6048   23.6612    1.6935 H         1 UNK         0.0705 
     80 H80        30.9893   23.4864    1.0552 H         1 UNK         0.0705 
     81 H81        32.8268   25.0065    3.9568 H         1 UNK         0.1334 
     82 H82        29.6707   24.1835    6.7368 H         1 UNK         0.1417 
     83 H83        29.1762   23.2140    2.5883 H         1 UNK         0.1562 
     84 H84        27.6364   23.2053    6.0481 H         1 UNK         0.0748 
     85 H85        27.8763   22.0171    4.7933 H         1 UNK         0.0748 
     86 H86        27.5314   25.7370    5.1601 H         1 UNK         0.0940 
     87 H87        25.8783   26.0675    4.7403 H         1 UNK         0.0940 
     88 H88        27.9526   25.7347    2.5264 H         1 UNK         0.0703 
     89 H89        25.2829   26.1135    2.3776 H         1 UNK         0.3081 
     90 H90        24.0287   27.6024    0.8491 H         1 UNK         0.0719 
     91 H91        25.6479   27.9312   -1.7367 H         1 UNK         0.0809 
     92 H92        23.9241   28.2400   -1.5419 H         1 UNK         0.0809 
     93 H93        25.0960   29.2493   -0.7102 H         1 UNK         0.0809 
     94 H94        24.8764   25.6903   -1.2211 H         1 UNK         0.2990 
     95 H95        23.8033   22.8137    0.5838 H         1 UNK         0.0690 
     96 H96        22.7375   22.4223   -1.6278 H         1 UNK         0.0788 
     97 H97        22.9015   24.1300   -2.0326 H         1 UNK         0.0788 
     98 H98        21.8680   23.6362   -0.7034 H         1 UNK         0.0788 
     99 H99        25.7631   22.4046   -0.2965 H         1 UNK         0.2993 
    100 H100       27.5069   22.2205   -1.5476 H         1 UNK         0.0949 
    101 H101       27.3068   23.5088   -4.3296 H         1 UNK         0.0767 
    102 H102       28.4561   22.2644   -3.8423 H         1 UNK         0.0767 
    103 H103       26.7393   21.8970   -3.9122 H         1 UNK         0.0767 
    104 H104       28.6431   24.6816   -2.6446 H         1 UNK         0.3013 
    105 H105       29.7364   26.5713    3.3741 H         1 UNK         0.3121 
    106 H106       31.3105   27.9570    3.9447 H         1 UNK         0.0774 
    107 H107       30.9906   29.9825    5.2455 H         1 UNK         0.0815 
    108 H108       29.3074   30.1210    4.7761 H         1 UNK         0.0815 
    109 H109       29.8213   28.8108    5.8350 H         1 UNK         0.0815 
    110 H110       28.9005   29.0244    1.6913 H         1 UNK         0.2987 
    111 H111       28.9008   30.1002   -0.2167 H         1 UNK         0.0949 
    112 H112       30.9369   30.3137   -1.5859 H         1 UNK         0.0806 
    113 H113       31.9687   30.0354   -0.1922 H         1 UNK         0.0806 
    114 H114       30.9369   28.7473   -0.7913 H         1 UNK         0.0806 
    115 H115       31.4342   31.4966    1.7804 H         1 UNK         0.3010 
    116 H116       30.1264   34.0754    1.9702 H         1 UNK         0.0829 
    117 H117       31.4904   34.5626   -0.0372 H         1 UNK         0.0813 
    118 H118       32.1805   35.3968    1.3456 H         1 UNK         0.0813 
    119 H119       32.9412   33.9320    0.7348 H         1 UNK         0.0813 
    120 H120       33.3278   32.4829    2.5270 H         1 UNK         0.3038 
    121 H121       32.8466   32.1751    5.3565 H         1 UNK         0.0769 
    122 H122       34.7259   33.6310    6.1284 H         1 UNK         0.0811 
    123 H123       33.4897   34.5966    5.3517 H         1 UNK         0.0811 
    124 H124       34.9754   34.2098    4.4861 H         1 UNK         0.0811 
    125 H125       33.3278   30.3282    3.2395 H         1 UNK         0.3204 
    126 H126       36.0782   29.6186    2.9936 H         1 UNK         0.0748 
    127 H127       35.1821   27.5940    1.8875 H         1 UNK         0.0771 
    128 H128       33.5754   27.9126    2.5184 H         1 UNK         0.0771 
    129 H129       34.2945   29.0058    1.3371 H         1 UNK         0.0771 
    130 H130       33.8155   28.9576    5.5584 H         1 UNK         0.2980 
    131 H131       35.0839   26.5790    6.5593 H         1 UNK         0.0545 
    132 H132       36.2304   29.8501    6.7072 H         1 UNK         0.3459 
    133 H133       37.2958   29.5989    8.0692 H         1 UNK         0.3459 
    134 H134       33.2570   28.4325    8.1452 H         1 UNK         0.0616 
    135 H135       33.6065   26.7566    8.4838 H         1 UNK         0.0616 
    136 H136       31.9226   24.7617    7.5503 H         1 UNK         0.0634 
    137 H137       33.2463   24.9362    6.4189 H         1 UNK         0.0634 
@<TRIPOS>BOND
     1    1    2 1    
     2    1   72 1    
     3    1   73 1    
     4    1   74 1    
     5    2    3 2    
     6    2    4 am   BACKBONE|DICT|INTERRES
     7    4    5 1    
     8    4   75 1    
     9    5    6 1    
    10    5   35 1    
    11    5   76 1    
    12    6    7 1    
    13    6   77 1    
    14    6   78 1    
    15    7    8 1    
    16    8    9 1    
    17    8   79 1    
    18    8   80 1    
    19    9   10 ar   
    20    9   14 ar   
    21   10   11 ar   
    22   10   81 1    
    23   11   12 ar   
    24   11   71 1    
    25   12   13 ar   
    26   12   82 1    
    27   13   14 ar   
    28   13   15 1    
    29   14   83 1    
    30   15   16 1    
    31   15   84 1    
    32   15   85 1    
    33   16   17 1    
    34   17   18 1    
    35   17   86 1    
    36   17   87 1    
    37   18   19 1    
    38   18   37 1    
    39   18   88 1    
    40   19   20 am   BACKBONE|DICT|INTERRES
    41   19   89 1    
    42   20   21 2    
    43   20   22 1    
    44   22   23 1    
    45   22   24 1    
    46   22   90 1    
    47   23   91 1    
    48   23   92 1    
    49   23   93 1    
    50   24   25 am   BACKBONE|DICT|INTERRES
    51   24   94 1    
    52   25   26 2    
    53   25   27 1    
    54   27   28 1    
    55   27   29 1    
    56   27   95 1    
    57   28   96 1    
    58   28   97 1    
    59   28   98 1    
    60   29   30 am   BACKBONE|DICT|INTERRES
    61   29   99 1    
    62   30   31 2    
    63   30   32 1    
    64   32   33 1    
    65   32   34 1    
    66   32  100 1    
    67   33  101 1    
    68   33  102 1    
    69   33  103 1    
    70   34   35 am   BACKBONE|DICT|INTERRES
    71   34  104 1    
    72   35   36 2    
    73   37   38 2    
    74   37   39 am   BACKBONE|DICT|INTERRES
    75   39   40 1    
    76   39  105 1    
    77   40   41 1    
    78   40   42 1    
    79   40  106 1    
    80   41  107 1    
    81   41  108 1    
    82   41  109 1    
    83   42   43 2    
    84   42   44 am   BACKBONE|DICT|INTERRES
    85   44   45 1    
    86   44  110 1    
    87   45   46 1    
    88   45   47 1    
    89   45  111 1    
    90   46  112 1    
    91   46  113 1    
    92   46  114 1    
    93   47   48 2    
    94   47   49 am   BACKBONE|DICT|INTERRES
    95   49   50 1    
    96   49  115 1    
    97   50   51 1    
    98   50   52 1    
    99   50  116 1    
   100   51  117 1    
   101   51  118 1    
   102   51  119 1    
   103   52   53 2    
   104   52   54 am   BACKBONE|DICT|INTERRES
   105   54   55 1    
   106   54  120 1    
   107   55   56 1    
   108   55   57 1    
   109   55  121 1    
   110   56  122 1    
   111   56  123 1    
   112   56  124 1    
   113   57   58 2    
   114   57   59 am   BACKBONE|DICT|INTERRES
   115   59   60 1    
   116   59  125 1    
   117   60   61 1    
   118   60   62 1    
   119   60  126 1    
   120   61  127 1    
   121   61  128 1    
   122   61  129 1    
   123   62   63 2    
   124   62   64 am   BACKBONE|DICT|INTERRES
   125   64   65 1    
   126   64  130 1    
   127   65   66 1    
   128   65   69 1    
   129   65  131 1    
   130   66   67 am   BACKBONE|DICT|INTERRES
   131   66   68 2    
   132   67  132 1    
   133   67  133 1    
   134   69   70 1    
   135   69  134 1    
   136   69  135 1    
   137   70   71 1    
   138   71  136 1    
   139   71  137 1    
@<TRIPOS>SUBSTRUCTURE
     1 UNK         1 GROUP             0       ****    0 ROOT    
