@<TRIPOS>MOLECULE
3R136
137   139    1
SMALL
USER_CHARGES


@<TRIPOS>ATOM
      1 CA         30.0832   26.6355   -0.1523 C.3       0 UNK        -0.1979 
      2 C          29.2571   25.3659   -0.0539 C.2       0 UNK         0.4864 
      3 O          28.1181   25.4178    0.4103 O.2       0 UNK        -0.5359 
      4 N          29.8149   24.2319   -0.5004 N.am      1 UNK        -0.4318 
      5 CA         29.1882   22.9022   -0.5041 C.3       1 UNK         0.0824 
      6 C6         30.1601   21.8259   -1.0634 C.3       12 UNK        -0.0944 
      7 S7         31.1319   20.9719    0.2200 S.3       12 UNK        -0.2672 
      8 C8         32.4180   22.1889    0.6739 C.3       12 UNK         0.0333 
      9 C9         32.0030   23.1132    1.8173 C.ar      12 UNK        -0.0807 
     10 C10        32.3529   24.4682    1.7892 C.ar      12 UNK        -0.0894 
     11 C11        31.9806   25.3229    2.8330 C.ar      12 UNK        -0.0804 
     12 C12        31.2592   24.8118    3.9158 C.ar      12 UNK        -0.0824 
     13 C13        30.9180   23.4585    3.9659 C.ar      12 UNK        -0.0762 
     14 C14        31.2995   22.6157    2.9205 C.ar      12 UNK        -0.0782 
     15 C15        30.1388   22.8958    5.1444 C.3       12 UNK         0.0230 
     16 S16        28.3534   22.8317    4.7929 S.3       12 UNK        -0.2608 
     17 C17        27.8621   24.5681    5.0639 C.3       12 UNK        -0.0989 
     18 CA         27.7095   25.3744    3.7436 C.3       5 UNK         0.0716 
     19 N          26.7461   24.8174    2.7917 N.am      5 UNK        -0.4135 
     20 C          25.4456   24.5701    2.9942 C.2       4 UNK         0.5031 
     21 O          24.8510   24.7917    4.0510 O.2       4 UNK        -0.5229 
     22 CA         24.6945   23.9486    1.8003 C.3       4 UNK         0.0329 
     23 CB         23.1760   23.8015    2.0400 C.3       4 UNK        -0.2001 
     24 N          24.9678   24.6425    0.5369 N.am      4 UNK        -0.4303 
     25 C          24.6708   25.9148    0.2229 C.2       3 UNK         0.5044 
     26 O          24.0762   26.6853    0.9774 O.2       3 UNK        -0.5152 
     27 CA         25.1067   26.4254   -1.1654 C.3       3 UNK         0.0319 
     28 CB         25.8334   27.7765   -1.0616 C.3       3 UNK        -0.2001 
     29 N          25.9870   25.4808   -1.8541 N.am      3 UNK        -0.4354 
     30 C          25.6027   24.5968   -2.7847 C.2       2 UNK         0.4964 
     31 O          24.4483   24.4999   -3.2014 O.2       2 UNK        -0.5047 
     32 CA         26.6820   23.6501   -3.3448 C.3       2 UNK         0.0288 
     33 CB         27.1437   24.1252   -4.7323 C.3       2 UNK        -0.2113 
     34 N          27.8557   23.5020   -2.4770 N.am      2 UNK        -0.4145 
     35 C          27.8533   22.8963   -1.2799 C.2       1 UNK         0.5006 
     36 O          26.8489   22.3983   -0.7685 O.2       1 UNK        -0.5103 
     37 C          27.4413   26.8712    3.9844 C.2       5 UNK         0.5055 
     38 O          27.2098   27.2855    5.1225 O.2       5 UNK        -0.5220 
     39 N          27.4853   27.6587    2.9038 N.am      6 UNK        -0.4450 
     40 CA         27.4073   29.1159    2.9417 C.3       6 UNK         0.0367 
     41 CB         25.9898   29.5743    2.5615 C.3       6 UNK        -0.1929 
     42 C          28.4585   29.6694    1.9771 C.2       6 UNK         0.5070 
     43 O          28.4571   29.2943    0.8045 O.2       6 UNK        -0.5237 
     44 N          29.3371   30.5388    2.4807 N.am      7 UNK        -0.4739 
     45 CA         30.4229   31.1782    1.7429 C.3       7 UNK         0.0276 
     46 CB         31.5717   30.1790    1.5065 C.3       7 UNK        -0.1927 
     47 C          30.9084   32.3935    2.5415 C.2       7 UNK         0.5013 
     48 O          30.6653   32.4684    3.7500 O.2       7 UNK        -0.5193 
     49 N          31.5816   33.3199    1.8514 N.am      8 UNK        -0.4253 
     50 CA         32.2108   34.4990    2.4452 C.3       8 UNK         0.0242 
     51 CB         32.2173   35.6343    1.4075 C.3       8 UNK        -0.2000 
     52 C          33.6453   34.1780    2.8912 C.2       8 UNK         0.4948 
     53 O          34.2831   33.2924    2.3169 O.2       8 UNK        -0.5275 
     54 N          34.1340   34.9322    3.8851 N.am      9 UNK        -0.4246 
     55 CA         35.4876   34.9341    4.4658 C.3       9 UNK         0.0261 
     56 CB         36.5531   35.2874    3.4087 C.3       9 UNK        -0.1959 
     57 C          35.8875   33.6649    5.2438 C.2       9 UNK         0.5033 
     58 O          36.5474   33.7907    6.2770 O.2       9 UNK        -0.5390 
     59 N          35.4931   32.4826    4.7643 N.am      10 UNK        -0.4215 
     60 CA         35.7420   31.1842    5.3847 C.3       10 UNK         0.0240 
     61 CB         37.0314   30.5766    4.8044 C.3       10 UNK        -0.1982 
     62 C          34.5424   30.2640    5.1361 C.2       10 UNK         0.4970 
     63 O          33.8049   30.4800    4.1741 O.2       10 UNK        -0.4916 
     64 N          34.3893   29.2655    6.0156 N.am      11 UNK        -0.4279 
     65 CA         33.3959   28.1710    6.0479 C.3       11 UNK         0.1003 
     66 C          31.8780   28.5145    5.9319 C.2       11 UNK         0.5709 
     67 N          31.4778   29.7392    5.6280 N.am      11 UNK        -0.7358 
     68 O          31.0397   27.6504    6.1753 O.2       11 UNK        -0.4999 
     69 C69        33.8144   26.9276    5.2088 C.3       12 UNK        -0.0954 
     70 S70        33.9846   27.1847    3.4089 S.3       12 UNK        -0.2268 
     71 C71        32.3218   26.8055    2.7726 C.3       12 UNK         0.0203 
     72 H72        29.6287   27.3233   -0.8649 H         1 UNK         0.0888 
     73 H73        30.1116   27.1277    0.8179 H         1 UNK         0.0888 
     74 H74        31.1069   26.4386   -0.4689 H         1 UNK         0.0888 
     75 H75        30.7563   24.2651   -0.8620 H         1 UNK         0.3017 
     76 H76        28.9420   22.6597    0.5323 H         1 UNK         0.0873 
     77 H77        29.6155   21.0313   -1.5789 H         1 UNK         0.0745 
     78 H78        30.8321   22.2416   -1.8164 H         1 UNK         0.0745 
     79 H79        33.3092   21.6442    0.9878 H         1 UNK         0.0705 
     80 H80        32.7040   22.7607   -0.2099 H         1 UNK         0.0705 
     81 H81        32.9117   24.8633    0.9519 H         1 UNK         0.1334 
     82 H82        30.9566   25.4689    4.7192 H         1 UNK         0.1417 
     83 H83        31.0363   21.5678    2.9654 H         1 UNK         0.1562 
     84 H84        30.3264   23.4770    6.0486 H         1 UNK         0.0748 
     85 H85        30.4871   21.8849    5.3616 H         1 UNK         0.0748 
     86 H86        28.5958   25.0461    5.7156 H         1 UNK         0.0940 
     87 H87        26.9286   24.5722    5.6286 H         1 UNK         0.0940 
     88 H88        28.6687   25.3319    3.2281 H         1 UNK         0.0703 
     89 H89        27.1138   24.7020    1.8507 H         1 UNK         0.3081 
     90 H90        25.1019   22.9431    1.6825 H         1 UNK         0.0719 
     91 H91        22.9790   23.1736    2.9097 H         1 UNK         0.0809 
     92 H92        22.6969   24.7639    2.2217 H         1 UNK         0.0809 
     93 H93        22.6828   23.3361    1.1868 H         1 UNK         0.0809 
     94 H94        25.4818   24.1000   -0.1464 H         1 UNK         0.2990 
     95 H95        24.1969   26.5787   -1.7493 H         1 UNK         0.0690 
     96 H96        26.1632   28.1282   -2.0392 H         1 UNK         0.0788 
     97 H97        26.7094   27.7102   -0.4163 H         1 UNK         0.0788 
     98 H98        25.1774   28.5440   -0.6503 H         1 UNK         0.0788 
     99 H99        26.9439   25.4588   -1.5260 H         1 UNK         0.2993 
    100 H100       26.2201   22.6663   -3.4547 H         1 UNK         0.0949 
    101 H101       26.2981   24.2155   -5.4159 H         1 UNK         0.0767 
    102 H102       27.6293   25.1009   -4.6844 H         1 UNK         0.0767 
    103 H103       27.8451   23.4210   -5.1806 H         1 UNK         0.0767 
    104 H104       28.7217   23.8981   -2.8131 H         1 UNK         0.3013 
    105 H105       27.6904   27.2561    1.9962 H         1 UNK         0.3121 
    106 H106       27.6328   29.4820    3.9459 H         1 UNK         0.0774 
    107 H107       25.9168   30.6624    2.5628 H         1 UNK         0.0815 
    108 H108       25.7070   29.2269    1.5683 H         1 UNK         0.0815 
    109 H109       25.2505   29.1955    3.2674 H         1 UNK         0.0815 
    110 H110       29.2656   30.8476    3.4429 H         1 UNK         0.2987 
    111 H111       30.0386   31.5294    0.7825 H         1 UNK         0.0949 
    112 H112       32.4283   30.6615    1.0341 H         1 UNK         0.0806 
    113 H113       31.9214   29.7481    2.4446 H         1 UNK         0.0806 
    114 H114       31.2634   29.3625    0.8546 H         1 UNK         0.0806 
    115 H115       31.7898   33.1470    0.8785 H         1 UNK         0.3010 
    116 H116       31.6324   34.8231    3.3136 H         1 UNK         0.0829 
    117 H117       31.2060   35.8812    1.0835 H         1 UNK         0.0813 
    118 H118       32.6535   36.5438    1.8229 H         1 UNK         0.0813 
    119 H119       32.7981   35.3704    0.5225 H         1 UNK         0.0813 
    120 H120       33.5066   35.6097    4.2975 H         1 UNK         0.3038 
    121 H121       35.4814   35.7453    5.1959 H         1 UNK         0.0769 
    122 H122       36.6403   34.5166    2.6424 H         1 UNK         0.0811 
    123 H123       37.5359   35.3956    3.8694 H         1 UNK         0.0811 
    124 H124       36.3228   36.2300    2.9123 H         1 UNK         0.0811 
    125 H125       34.9380   32.4638    3.9093 H         1 UNK         0.3204 
    126 H126       35.8541   31.3107    6.4638 H         1 UNK         0.0748 
    127 H127       37.8926   31.2165    4.9975 H         1 UNK         0.0771 
    128 H128       37.2446   29.6037    5.2492 H         1 UNK         0.0771 
    129 H129       36.9560   30.4334    3.7255 H         1 UNK         0.0771 
    130 H130       35.0536   29.2275    6.7747 H         1 UNK         0.2980 
    131 H131       33.4666   27.8393    7.0846 H         1 UNK         0.0545 
    132 H132       30.4949   29.9499    5.5988 H         1 UNK         0.3459 
    133 H133       32.1564   30.4095    5.2897 H         1 UNK         0.3459 
    134 H134       34.7885   26.5859    5.5613 H         1 UNK         0.0616 
    135 H135       33.1463   26.0892    5.4008 H         1 UNK         0.0616 
    136 H136       31.5729   27.3934    3.3036 H         1 UNK         0.0634 
    137 H137       32.2864   27.1423    1.7368 H         1 UNK         0.0634 
@<TRIPOS>BOND
     1    1    2 1    
     2    1   72 1    
     3    1   73 1    
     4    1   74 1    
     5    2    3 2    
     6    2    4 am   BACKBONE|DICT|INTERRES
     7    4    5 1    
     8    4   75 1    
     9    5    6 1    
    10    5   35 1    
    11    5   76 1    
    12    6    7 1    
    13    6   77 1    
    14    6   78 1    
    15    7    8 1    
    16    8    9 1    
    17    8   79 1    
    18    8   80 1    
    19    9   10 ar   
    20    9   14 ar   
    21   10   11 ar   
    22   10   81 1    
    23   11   12 ar   
    24   11   71 1    
    25   12   13 ar   
    26   12   82 1    
    27   13   14 ar   
    28   13   15 1    
    29   14   83 1    
    30   15   16 1    
    31   15   84 1    
    32   15   85 1    
    33   16   17 1    
    34   17   18 1    
    35   17   86 1    
    36   17   87 1    
    37   18   19 1    
    38   18   37 1    
    39   18   88 1    
    40   19   20 am   BACKBONE|DICT|INTERRES
    41   19   89 1    
    42   20   21 2    
    43   20   22 1    
    44   22   23 1    
    45   22   24 1    
    46   22   90 1    
    47   23   91 1    
    48   23   92 1    
    49   23   93 1    
    50   24   25 am   BACKBONE|DICT|INTERRES
    51   24   94 1    
    52   25   26 2    
    53   25   27 1    
    54   27   28 1    
    55   27   29 1    
    56   27   95 1    
    57   28   96 1    
    58   28   97 1    
    59   28   98 1    
    60   29   30 am   BACKBONE|DICT|INTERRES
    61   29   99 1    
    62   30   31 2    
    63   30   32 1    
    64   32   33 1    
    65   32   34 1    
    66   32  100 1    
    67   33  101 1    
    68   33  102 1    
    69   33  103 1    
    70   34   35 am   BACKBONE|DICT|INTERRES
    71   34  104 1    
    72   35   36 2    
    73   37   38 2    
    74   37   39 am   BACKBONE|DICT|INTERRES
    75   39   40 1    
    76   39  105 1    
    77   40   41 1    
    78   40   42 1    
    79   40  106 1    
    80   41  107 1    
    81   41  108 1    
    82   41  109 1    
    83   42   43 2    
    84   42   44 am   BACKBONE|DICT|INTERRES
    85   44   45 1    
    86   44  110 1    
    87   45   46 1    
    88   45   47 1    
    89   45  111 1    
    90   46  112 1    
    91   46  113 1    
    92   46  114 1    
    93   47   48 2    
    94   47   49 am   BACKBONE|DICT|INTERRES
    95   49   50 1    
    96   49  115 1    
    97   50   51 1    
    98   50   52 1    
    99   50  116 1    
   100   51  117 1    
   101   51  118 1    
   102   51  119 1    
   103   52   53 2    
   104   52   54 am   BACKBONE|DICT|INTERRES
   105   54   55 1    
   106   54  120 1    
   107   55   56 1    
   108   55   57 1    
   109   55  121 1    
   110   56  122 1    
   111   56  123 1    
   112   56  124 1    
   113   57   58 2    
   114   57   59 am   BACKBONE|DICT|INTERRES
   115   59   60 1    
   116   59  125 1    
   117   60   61 1    
   118   60   62 1    
   119   60  126 1    
   120   61  127 1    
   121   61  128 1    
   122   61  129 1    
   123   62   63 2    
   124   62   64 am   BACKBONE|DICT|INTERRES
   125   64   65 1    
   126   64  130 1    
   127   65   66 1    
   128   65   69 1    
   129   65  131 1    
   130   66   67 am   BACKBONE|DICT|INTERRES
   131   66   68 2    
   132   67  132 1    
   133   67  133 1    
   134   69   70 1    
   135   69  134 1    
   136   69  135 1    
   137   70   71 1    
   138   71  136 1    
   139   71  137 1    
@<TRIPOS>SUBSTRUCTURE
     1 UNK         1 GROUP             0       ****    0 ROOT    
