@<TRIPOS>MOLECULE
3R136
137   139    1
SMALL
USER_CHARGES


@<TRIPOS>ATOM
      1 CA         29.9039   23.6785   -2.8142 C.3       0 UNK        -0.1979 
      2 C          29.3915   22.6958   -1.7722 C.2       0 UNK         0.4864 
      3 O          28.9005   21.6252   -2.1332 O.2       0 UNK        -0.5359 
      4 N          29.4888   23.0532   -0.4833 N.am      1 UNK        -0.4318 
      5 CA         29.0960   22.2689    0.6989 C.3       1 UNK         0.0824 
      6 C6         29.7986   20.8840    0.7780 C.3       12 UNK        -0.0944 
      7 S7         30.2023   20.3796    2.4833 S.3       12 UNK        -0.2672 
      8 C8         31.9022   21.0173    2.6664 C.3       12 UNK         0.0333 
      9 C9         31.9039   22.5222    2.8913 C.ar      12 UNK        -0.0807 
     10 C10        31.7246   23.0334    4.1803 C.ar      12 UNK        -0.0894 
     11 C11        31.6667   24.4132    4.3958 C.ar      12 UNK        -0.0804 
     12 C12        31.7680   25.2809    3.3062 C.ar      12 UNK        -0.0824 
     13 C13        31.9744   24.7841    2.0174 C.ar      12 UNK        -0.0762 
     14 C14        32.0606   23.4034    1.8157 C.ar      12 UNK        -0.0782 
     15 C15        32.1026   25.7508    0.8535 C.3       12 UNK         0.0230 
     16 S16        30.4641   26.1967    0.1942 S.3       12 UNK        -0.2608 
     17 C17        30.7030   27.9685   -0.1898 C.3       12 UNK        -0.0989 
     18 CA         29.8370   28.9189    0.6731 C.3       5 UNK         0.0716 
     19 N          28.4021   28.7433    0.4038 N.am      5 UNK        -0.4135 
     20 C          27.4047   29.4985    0.8884 C.2       4 UNK         0.5031 
     21 O          27.5886   30.4294    1.6729 O.2       4 UNK        -0.5229 
     22 CA         25.9613   29.1892    0.4448 C.3       4 UNK         0.0329 
     23 CB         25.3415   30.4172   -0.2442 C.3       4 UNK        -0.2001 
     24 N          25.8135   28.0268   -0.4379 N.am      4 UNK        -0.4303 
     25 C          25.9645   26.7483   -0.0715 C.2       3 UNK         0.5044 
     26 O          26.3051   26.3918    1.0594 O.2       3 UNK        -0.5152 
     27 CA         25.7367   25.7056   -1.1722 C.3       3 UNK         0.0319 
     28 CB         26.8617   25.7668   -2.2252 C.3       3 UNK        -0.2001 
     29 N          25.7018   24.3785   -0.5681 N.am      3 UNK        -0.4354 
     30 C          25.1693   23.2766   -1.1090 C.2       2 UNK         0.4964 
     31 O          24.5652   23.2679   -2.1831 O.2       2 UNK        -0.5047 
     32 CA         25.4134   21.9616   -0.3442 C.3       2 UNK         0.0288 
     33 CB         24.8392   20.7293   -1.0681 C.3       2 UNK        -0.2113 
     34 N          26.8554   21.7845   -0.1765 N.am      2 UNK        -0.4145 
     35 C          27.5669   22.1952    0.8790 C.2       1 UNK         0.5006 
     36 O          27.0561   22.5931    1.9269 O.2       1 UNK        -0.5103 
     37 C          30.2191   28.8750    2.1720 C.2       5 UNK         0.5055 
     38 O          31.2097   29.4957    2.5615 O.2       5 UNK        -0.5220 
     39 N          29.4013   28.2070    2.9980 N.am      6 UNK        -0.4450 
     40 CA         29.4928   28.2179    4.4606 C.3       6 UNK         0.0367 
     41 CB         28.4603   27.2360    5.0351 C.3       6 UNK        -0.1929 
     42 C          29.3180   29.6152    5.0864 C.2       6 UNK         0.5070 
     43 O          29.8573   29.8558    6.1656 O.2       6 UNK        -0.5237 
     44 N          28.5965   30.5083    4.3972 N.am      7 UNK        -0.4739 
     45 CA         28.4528   31.9178    4.7512 C.3       7 UNK         0.0276 
     46 CB         26.9677   32.3134    4.6900 C.3       7 UNK        -0.1927 
     47 C          29.2901   32.7895    3.8062 C.2       7 UNK         0.5013 
     48 O          30.0916   33.5929    4.2810 O.2       7 UNK        -0.5193 
     49 N          29.1131   32.6034    2.4894 N.am      8 UNK        -0.4253 
     50 CA         29.6928   33.4379    1.4306 C.3       8 UNK         0.0242 
     51 CB         29.0630   33.0643    0.0787 C.3       8 UNK        -0.2000 
     52 C          31.2284   33.3999    1.3482 C.2       8 UNK         0.4948 
     53 O          31.8297   34.4176    1.0027 O.2       8 UNK        -0.5275 
     54 N          31.8329   32.2535    1.6855 N.am      9 UNK        -0.4246 
     55 CA         33.2819   32.0784    1.8230 C.3       9 UNK         0.0261 
     56 CB         33.7505   30.9652    0.8668 C.3       9 UNK        -0.1959 
     57 C          33.6661   31.7701    3.2823 C.2       9 UNK         0.5033 
     58 O          34.8003   31.3573    3.5299 O.2       9 UNK        -0.5390 
     59 N          32.7176   31.9456    4.2183 N.am      10 UNK        -0.4215 
     60 CA         32.8192   31.7258    5.6666 C.3       10 UNK         0.0240 
     61 CB         33.6606   32.8512    6.3047 C.3       10 UNK        -0.1982 
     62 C          33.3109   30.3210    6.0801 C.2       10 UNK         0.4970 
     63 O          33.8837   30.1845    7.1630 O.2       10 UNK        -0.4916 
     64 N          33.1062   29.3114    5.2184 N.am      11 UNK        -0.4279 
     65 CA         33.6621   27.9542    5.3647 C.3       11 UNK         0.1003 
     66 C          35.2219   27.8951    5.2541 C.2       11 UNK         0.5709 
     67 N          35.8812   28.8864    4.6630 N.am      11 UNK        -0.7358 
     68 O          35.8543   26.9328    5.6813 O.2       11 UNK        -0.4999 
     69 C69        33.0673   27.2176    6.6051 C.3       12 UNK        -0.0954 
     70 S70        33.1177   25.3923    6.5212 S.3       12 UNK        -0.2268 
     71 C71        31.5016   24.9606    5.8047 C.3       12 UNK         0.0203 
     72 H72        29.1052   23.9414   -3.5071 H         1 UNK         0.0888 
     73 H73        30.2791   24.5969   -2.3644 H         1 UNK         0.0888 
     74 H74        30.7142   23.2270   -3.3857 H         1 UNK         0.0888 
     75 H75        29.8565   23.9721   -0.2665 H         1 UNK         0.3017 
     76 H76        29.4423   22.8728    1.5376 H         1 UNK         0.0873 
     77 H77        29.1932   20.1037    0.3129 H         1 UNK         0.0745 
     78 H78        30.7286   20.8970    0.2079 H         1 UNK         0.0745 
     79 H79        32.5005   20.7529    1.7932 H         1 UNK         0.0705 
     80 H80        32.3729   20.5203    3.5161 H         1 UNK         0.0705 
     81 H81        31.6221   22.3544    5.0160 H         1 UNK         0.1334 
     82 H82        31.6930   26.3467    3.4561 H         1 UNK         0.1417 
     83 H83        32.2116   23.0135    0.8183 H         1 UNK         0.1562 
     84 H84        32.7067   25.3173    0.0550 H         1 UNK         0.0748 
     85 H85        32.6379   26.6387    1.1934 H         1 UNK         0.0748 
     86 H86        31.7563   28.2414   -0.1064 H         1 UNK         0.0940 
     87 H87        30.4617   28.1138   -1.2442 H         1 UNK         0.0940 
     88 H88        30.0754   29.9321    0.3475 H         1 UNK         0.0703 
     89 H89        28.1602   27.9779   -0.2069 H         1 UNK         0.3081 
     90 H90        25.3928   28.9908    1.3559 H         1 UNK         0.0719 
     91 H91        25.8679   30.6724   -1.1648 H         1 UNK         0.0809 
     92 H92        24.2931   30.2481   -0.4909 H         1 UNK         0.0809 
     93 H93        25.3786   31.2939    0.4045 H         1 UNK         0.0809 
     94 H94        25.5498   28.2248   -1.3930 H         1 UNK         0.2990 
     95 H95        24.7733   25.9098   -1.6441 H         1 UNK         0.0690 
     96 H96        27.8409   25.6063   -1.7730 H         1 UNK         0.0788 
     97 H97        26.8876   26.7349   -2.7264 H         1 UNK         0.0788 
     98 H98        26.7244   25.0127   -3.0004 H         1 UNK         0.0788 
     99 H99        26.1261   24.3322    0.3520 H         1 UNK         0.2993 
    100 H100       24.9219   22.0456    0.6276 H         1 UNK         0.0949 
    101 H101       25.2829   20.5972   -2.0560 H         1 UNK         0.0767 
    102 H102       25.0178   19.8178   -0.4972 H         1 UNK         0.0767 
    103 H103       23.7605   20.8216   -1.2018 H         1 UNK         0.0767 
    104 H104       27.3851   21.5437   -1.0121 H         1 UNK         0.3013 
    105 H105       28.6190   27.7118    2.5930 H         1 UNK         0.3121 
    106 H106       30.4911   27.8751    4.7328 H         1 UNK         0.0774 
    107 H107       28.5311   27.1878    6.1227 H         1 UNK         0.0815 
    108 H108       27.4404   27.5334    4.7876 H         1 UNK         0.0815 
    109 H109       28.6164   26.2260    4.6550 H         1 UNK         0.0815 
    110 H110       28.2044   30.2321    3.5020 H         1 UNK         0.2987 
    111 H111       28.8066   32.0967    5.7692 H         1 UNK         0.0949 
    112 H112       26.5378   32.1436    3.7019 H         1 UNK         0.0806 
    113 H113       26.3800   31.7434    5.4097 H         1 UNK         0.0806 
    114 H114       26.8348   33.3697    4.9280 H         1 UNK         0.0806 
    115 H115       28.4581   31.8833    2.1869 H         1 UNK         0.3010 
    116 H116       29.4140   34.4703    1.6528 H         1 UNK         0.0829 
    117 H117       29.4349   33.7117   -0.7167 H         1 UNK         0.0813 
    118 H118       29.2878   32.0376   -0.2067 H         1 UNK         0.0813 
    119 H119       27.9784   33.1732    0.1028 H         1 UNK         0.0813 
    120 H120       31.2739   31.4516    1.9568 H         1 UNK         0.3038 
    121 H121       33.8074   32.9967    1.5537 H         1 UNK         0.0769 
    122 H122       34.8375   30.8748    0.8764 H         1 UNK         0.0811 
    123 H123       33.4542   31.1748   -0.1609 H         1 UNK         0.0811 
    124 H124       33.3438   29.9924    1.1420 H         1 UNK         0.0811 
    125 H125       31.8342   32.3364    3.9145 H         1 UNK         0.3204 
    126 H126       31.8040   31.8126    6.0561 H         1 UNK         0.0748 
    127 H127       33.6381   32.7941    7.3937 H         1 UNK         0.0771 
    128 H128       34.7051   32.7960    5.9954 H         1 UNK         0.0771 
    129 H129       33.2802   33.8347    6.0282 H         1 UNK         0.0771 
    130 H130       32.6341   29.5086    4.3446 H         1 UNK         0.2980 
    131 H131       33.3186   27.4281    4.4774 H         1 UNK         0.0545 
    132 H132       36.8841   28.8299    4.5919 H         1 UNK         0.3459 
    133 H133       35.3986   29.7046    4.3011 H         1 UNK         0.3459 
    134 H134       33.5950   27.5223    7.5101 H         1 UNK         0.0616 
    135 H135       32.0314   27.5210    6.7627 H         1 UNK         0.0616 
    136 H136       31.0263   24.2149    6.4437 H         1 UNK         0.0634 
    137 H137       30.8350   25.8207    5.8033 H         1 UNK         0.0634 
@<TRIPOS>BOND
     1    1    2 1    
     2    1   72 1    
     3    1   73 1    
     4    1   74 1    
     5    2    3 2    
     6    2    4 am   BACKBONE|DICT|INTERRES
     7    4    5 1    
     8    4   75 1    
     9    5    6 1    
    10    5   35 1    
    11    5   76 1    
    12    6    7 1    
    13    6   77 1    
    14    6   78 1    
    15    7    8 1    
    16    8    9 1    
    17    8   79 1    
    18    8   80 1    
    19    9   10 ar   
    20    9   14 ar   
    21   10   11 ar   
    22   10   81 1    
    23   11   12 ar   
    24   11   71 1    
    25   12   13 ar   
    26   12   82 1    
    27   13   14 ar   
    28   13   15 1    
    29   14   83 1    
    30   15   16 1    
    31   15   84 1    
    32   15   85 1    
    33   16   17 1    
    34   17   18 1    
    35   17   86 1    
    36   17   87 1    
    37   18   19 1    
    38   18   37 1    
    39   18   88 1    
    40   19   20 am   BACKBONE|DICT|INTERRES
    41   19   89 1    
    42   20   21 2    
    43   20   22 1    
    44   22   23 1    
    45   22   24 1    
    46   22   90 1    
    47   23   91 1    
    48   23   92 1    
    49   23   93 1    
    50   24   25 am   BACKBONE|DICT|INTERRES
    51   24   94 1    
    52   25   26 2    
    53   25   27 1    
    54   27   28 1    
    55   27   29 1    
    56   27   95 1    
    57   28   96 1    
    58   28   97 1    
    59   28   98 1    
    60   29   30 am   BACKBONE|DICT|INTERRES
    61   29   99 1    
    62   30   31 2    
    63   30   32 1    
    64   32   33 1    
    65   32   34 1    
    66   32  100 1    
    67   33  101 1    
    68   33  102 1    
    69   33  103 1    
    70   34   35 am   BACKBONE|DICT|INTERRES
    71   34  104 1    
    72   35   36 2    
    73   37   38 2    
    74   37   39 am   BACKBONE|DICT|INTERRES
    75   39   40 1    
    76   39  105 1    
    77   40   41 1    
    78   40   42 1    
    79   40  106 1    
    80   41  107 1    
    81   41  108 1    
    82   41  109 1    
    83   42   43 2    
    84   42   44 am   BACKBONE|DICT|INTERRES
    85   44   45 1    
    86   44  110 1    
    87   45   46 1    
    88   45   47 1    
    89   45  111 1    
    90   46  112 1    
    91   46  113 1    
    92   46  114 1    
    93   47   48 2    
    94   47   49 am   BACKBONE|DICT|INTERRES
    95   49   50 1    
    96   49  115 1    
    97   50   51 1    
    98   50   52 1    
    99   50  116 1    
   100   51  117 1    
   101   51  118 1    
   102   51  119 1    
   103   52   53 2    
   104   52   54 am   BACKBONE|DICT|INTERRES
   105   54   55 1    
   106   54  120 1    
   107   55   56 1    
   108   55   57 1    
   109   55  121 1    
   110   56  122 1    
   111   56  123 1    
   112   56  124 1    
   113   57   58 2    
   114   57   59 am   BACKBONE|DICT|INTERRES
   115   59   60 1    
   116   59  125 1    
   117   60   61 1    
   118   60   62 1    
   119   60  126 1    
   120   61  127 1    
   121   61  128 1    
   122   61  129 1    
   123   62   63 2    
   124   62   64 am   BACKBONE|DICT|INTERRES
   125   64   65 1    
   126   64  130 1    
   127   65   66 1    
   128   65   69 1    
   129   65  131 1    
   130   66   67 am   BACKBONE|DICT|INTERRES
   131   66   68 2    
   132   67  132 1    
   133   67  133 1    
   134   69   70 1    
   135   69  134 1    
   136   69  135 1    
   137   70   71 1    
   138   71  136 1    
   139   71  137 1    
@<TRIPOS>SUBSTRUCTURE
     1 UNK         1 GROUP             0       ****    0 ROOT    
