@<TRIPOS>MOLECULE
3R136
137   139    1
SMALL
USER_CHARGES


@<TRIPOS>ATOM
      1 CA         30.0342   18.7899    3.0370 C.3       0 UNK        -0.1979 
      2 C          29.0644   19.9561    2.9156 C.2       0 UNK         0.4864 
      3 O          27.8753   19.7873    3.1886 O.2       0 UNK        -0.5359 
      4 N          29.5687   21.1285    2.5000 N.am      1 UNK        -0.4318 
      5 CA         28.8348   22.3965    2.3379 C.3       1 UNK         0.0824 
      6 C6         28.2757   22.9750    3.6722 C.3       12 UNK        -0.0944 
      7 S7         29.4788   22.9996    5.0475 S.3       12 UNK        -0.2672 
      8 C8         30.0641   24.7216    5.0256 C.3       12 UNK         0.0333 
      9 C9         31.0382   24.9696    3.8845 C.ar      12 UNK        -0.0807 
     10 C10        32.3318   24.4491    3.9475 C.ar      12 UNK        -0.0894 
     11 C11        33.2481   24.6907    2.9202 C.ar      12 UNK        -0.0804 
     12 C12        32.8540   25.4580    1.8192 C.ar      12 UNK        -0.0824 
     13 C13        31.5562   25.9765    1.7310 C.ar      12 UNK        -0.0762 
     14 C14        30.6550   25.7262    2.7753 C.ar      12 UNK        -0.0782 
     15 C15        31.1880   26.8375    0.5199 C.3       12 UNK         0.0230 
     16 S16        29.4212   26.8065    0.0587 S.3       12 UNK        -0.2608 
     17 C17        28.7015   28.1001    1.1306 C.3       12 UNK        -0.0989 
     18 CA         27.8226   29.0980    0.3361 C.3       5 UNK         0.0716 
     19 N          26.7171   28.4209   -0.3384 N.am      5 UNK        -0.4135 
     20 C          25.9484   28.9370   -1.3020 C.2       4 UNK         0.5031 
     21 O          26.0858   30.0790   -1.7460 O.2       4 UNK        -0.5229 
     22 CA         24.8745   27.9959   -1.8898 C.3       4 UNK         0.0329 
     23 CB         24.0246   28.6740   -2.9812 C.3       4 UNK        -0.2001 
     24 N          25.4613   26.7673   -2.4393 N.am      4 UNK        -0.4303 
     25 C          25.9034   25.7308   -1.7154 C.2       3 UNK         0.5044 
     26 O          25.8342   25.6839   -0.4838 O.2       3 UNK        -0.5152 
     27 CA         26.5562   24.5791   -2.4897 C.3       3 UNK         0.0319 
     28 CB         27.9272   24.9929   -3.0620 C.3       3 UNK        -0.2001 
     29 N          26.7036   23.4355   -1.5929 N.am      3 UNK        -0.4354 
     30 C          26.9337   22.1706   -1.9557 C.2       2 UNK         0.4964 
     31 O          27.0933   21.8195   -3.1266 O.2       2 UNK        -0.5047 
     32 CA         26.9914   21.1251   -0.8233 C.3       2 UNK         0.0288 
     33 CB         27.3093   19.7075   -1.3378 C.3       2 UNK        -0.2113 
     34 N          27.9592   21.4675    0.2235 N.am      2 UNK        -0.4145 
     35 C          27.7414   22.3130    1.2421 C.2       1 UNK         0.5006 
     36 O          26.7165   22.9913    1.3379 O.2       1 UNK        -0.5103 
     37 C          27.2889   30.1957    1.2739 C.2       5 UNK         0.5055 
     38 O          26.4191   29.9185    2.1041 O.2       5 UNK        -0.5220 
     39 N          27.8551   31.4022    1.1589 N.am      6 UNK        -0.4450 
     40 CA         27.7099   32.4756    2.1427 C.3       6 UNK         0.0367 
     41 CB         28.0979   33.8092    1.4823 C.3       6 UNK        -0.1929 
     42 C          28.6126   32.2031    3.3566 C.2       6 UNK         0.5070 
     43 O          29.6041   31.4809    3.2286 O.2       6 UNK        -0.5237 
     44 N          28.3099   32.8367    4.4964 N.am      7 UNK        -0.4739 
     45 CA         29.0775   32.7107    5.7449 C.3       7 UNK         0.0276 
     46 CB         28.3725   33.5008    6.8590 C.3       7 UNK        -0.1927 
     47 C          30.5531   33.1421    5.6282 C.2       7 UNK         0.5013 
     48 O          31.4008   32.5873    6.3265 O.2       7 UNK        -0.5193 
     49 N          30.8317   34.0992    4.7322 N.am      8 UNK        -0.4253 
     50 CA         32.1819   34.5485    4.3860 C.3       8 UNK         0.0242 
     51 CB         32.1007   35.9710    3.8074 C.3       8 UNK        -0.2000 
     52 C          32.9014   33.6108    3.3968 C.2       8 UNK         0.4948 
     53 O          34.1313   33.6422    3.3392 O.2       8 UNK        -0.5275 
     54 N          32.1424   32.8194    2.6246 N.am      9 UNK        -0.4246 
     55 CA         32.6657   31.8718    1.6370 C.3       9 UNK         0.0261 
     56 CB         31.6834   31.7623    0.4588 C.3       9 UNK        -0.1959 
     57 C          32.9180   30.4851    2.2474 C.2       9 UNK         0.5033 
     58 O          33.8299   29.7910    1.7954 O.2       9 UNK        -0.5390 
     59 N          32.1041   30.1003    3.2413 N.am      10 UNK        -0.4215 
     60 CA         32.2020   28.8419    3.9797 C.3       10 UNK         0.0240 
     61 CB         31.0240   28.7344    4.9609 C.3       10 UNK        -0.1982 
     62 C          33.5474   28.6878    4.7066 C.2       10 UNK         0.4970 
     63 O          34.0049   29.6363    5.3479 O.2       10 UNK        -0.4916 
     64 N          34.1499   27.4983    4.5904 N.am      11 UNK        -0.4279 
     65 CA         35.4774   27.1874    5.1406 C.3       11 UNK         0.1003 
     66 C          35.5262   26.9506    6.6799 C.2       11 UNK         0.5709 
     67 N          34.3992   26.8673    7.3775 N.am      11 UNK        -0.7358 
     68 O          36.6096   26.8574    7.2525 O.2       11 UNK        -0.4999 
     69 C69        36.1835   26.0721    4.3231 C.3       12 UNK        -0.0954 
     70 S70        35.5016   24.3931    4.5538 S.3       12 UNK        -0.2268 
     71 C71        34.6439   24.0801    2.9753 C.3       12 UNK         0.0203 
     72 H72        31.0509   19.0732    2.7651 H         1 UNK         0.0888 
     73 H73        30.0488   18.4210    4.0622 H         1 UNK         0.0888 
     74 H74        29.7235   17.9738    2.3851 H         1 UNK         0.0888 
     75 H75        30.5589   21.1869    2.3061 H         1 UNK         0.3017 
     76 H76        29.5664   23.1114    1.9588 H         1 UNK         0.0873 
     77 H77        27.8964   23.9866    3.5168 H         1 UNK         0.0745 
     78 H78        27.4195   22.3862    4.0063 H         1 UNK         0.0745 
     79 H79        30.5653   24.9315    5.9716 H         1 UNK         0.0705 
     80 H80        29.2132   25.4028    4.9767 H         1 UNK         0.0705 
     81 H81        32.6226   23.8482    4.7988 H         1 UNK         0.1334 
     82 H82        33.5594   25.6474    1.0211 H         1 UNK         0.1417 
     83 H83        29.6525   26.1226    2.7410 H         1 UNK         0.1562 
     84 H84        31.7494   26.4890   -0.3484 H         1 UNK         0.0748 
     85 H85        31.5105   27.8650    0.6939 H         1 UNK         0.0748 
     86 H86        29.5025   28.6301    1.6513 H         1 UNK         0.0940 
     87 H87        28.1076   27.6115    1.9056 H         1 UNK         0.0940 
     88 H88        28.4442   29.5633   -0.4324 H         1 UNK         0.0703 
     89 H89        26.5376   27.4610   -0.0598 H         1 UNK         0.3081 
     90 H90        24.2040   27.7265   -1.0708 H         1 UNK         0.0719 
     91 H91        24.6293   28.9712   -3.8389 H         1 UNK         0.0809 
     92 H92        23.2359   28.0119   -3.3390 H         1 UNK         0.0809 
     93 H93        23.5397   29.5725   -2.5968 H         1 UNK         0.0809 
     94 H94        25.5845   26.7421   -3.4416 H         1 UNK         0.2990 
     95 H95        25.8866   24.3023   -3.3067 H         1 UNK         0.0690 
     96 H96        28.3485   24.2102   -3.6928 H         1 UNK         0.0788 
     97 H97        28.6458   25.1995   -2.2694 H         1 UNK         0.0788 
     98 H98        27.8515   25.8900   -3.6772 H         1 UNK         0.0788 
     99 H99        26.5556   23.6497   -0.6083 H         1 UNK         0.2993 
    100 H100       25.9946   21.0937   -0.3773 H         1 UNK         0.0949 
    101 H101       26.5764   19.3857   -2.0792 H         1 UNK         0.0767 
    102 H102       28.2928   19.6589   -1.8072 H         1 UNK         0.0767 
    103 H103       27.2869   18.9779   -0.5278 H         1 UNK         0.0767 
    104 H104       28.8376   20.9707    0.2009 H         1 UNK         0.3013 
    105 H105       28.5609   31.5391    0.4513 H         1 UNK         0.3121 
    106 H106       26.6706   32.5267    2.4745 H         1 UNK         0.0774 
    107 H107       27.9650   34.6439    2.1719 H         1 UNK         0.0815 
    108 H108       29.1397   33.8163    1.1587 H         1 UNK         0.0815 
    109 H109       27.4762   34.0136    0.6104 H         1 UNK         0.0815 
    110 H110       27.4902   33.4271    4.5252 H         1 UNK         0.2987 
    111 H111       29.0768   31.6540    6.0222 H         1 UNK         0.0949 
    112 H112       28.3120   34.5644    6.6248 H         1 UNK         0.0806 
    113 H113       27.3595   33.1344    7.0266 H         1 UNK         0.0806 
    114 H114       28.9089   33.4055    7.8043 H         1 UNK         0.0806 
    115 H115       30.0641   34.5129    4.2235 H         1 UNK         0.3010 
    116 H116       32.7832   34.5861    5.2972 H         1 UNK         0.0829 
    117 H117       31.6555   36.6650    4.5205 H         1 UNK         0.0813 
    118 H118       33.0946   36.3512    3.5662 H         1 UNK         0.0813 
    119 H119       31.5092   36.0031    2.8914 H         1 UNK         0.0813 
    120 H120       31.1441   32.7896    2.7887 H         1 UNK         0.3038 
    121 H121       33.6161   32.2434    1.2473 H         1 UNK         0.0769 
    122 H122       32.0880   31.1184   -0.3233 H         1 UNK         0.0811 
    123 H123       31.4902   32.7363    0.0091 H         1 UNK         0.0811 
    124 H124       30.7298   31.3350    0.7666 H         1 UNK         0.0811 
    125 H125       31.3268   30.7079    3.4842 H         1 UNK         0.3204 
    126 H126       32.1174   28.0444    3.2469 H         1 UNK         0.0748 
    127 H127       31.0516   27.7896    5.5051 H         1 UNK         0.0771 
    128 H128       31.0416   29.5397    5.6969 H         1 UNK         0.0771 
    129 H129       30.0680   28.7797    4.4383 H         1 UNK         0.0771 
    130 H130       33.7015   26.7543    4.0741 H         1 UNK         0.2980 
    131 H131       36.0832   28.0832    4.9890 H         1 UNK         0.0545 
    132 H132       34.4449   26.7204    8.3733 H         1 UNK         0.3459 
    133 H133       33.5078   26.9480    6.9175 H         1 UNK         0.3459 
    134 H134       36.1729   26.3279    3.2626 H         1 UNK         0.0616 
    135 H135       37.2392   26.0325    4.5970 H         1 UNK         0.0616 
    136 H136       35.2640   24.4288    2.1482 H         1 UNK         0.0634 
    137 H137       34.5467   23.0013    2.8482 H         1 UNK         0.0634 
@<TRIPOS>BOND
     1    1    2 1    
     2    1   72 1    
     3    1   73 1    
     4    1   74 1    
     5    2    3 2    
     6    2    4 am   BACKBONE|DICT|INTERRES
     7    4    5 1    
     8    4   75 1    
     9    5    6 1    
    10    5   35 1    
    11    5   76 1    
    12    6    7 1    
    13    6   77 1    
    14    6   78 1    
    15    7    8 1    
    16    8    9 1    
    17    8   79 1    
    18    8   80 1    
    19    9   10 ar   
    20    9   14 ar   
    21   10   11 ar   
    22   10   81 1    
    23   11   12 ar   
    24   11   71 1    
    25   12   13 ar   
    26   12   82 1    
    27   13   14 ar   
    28   13   15 1    
    29   14   83 1    
    30   15   16 1    
    31   15   84 1    
    32   15   85 1    
    33   16   17 1    
    34   17   18 1    
    35   17   86 1    
    36   17   87 1    
    37   18   19 1    
    38   18   37 1    
    39   18   88 1    
    40   19   20 am   BACKBONE|DICT|INTERRES
    41   19   89 1    
    42   20   21 2    
    43   20   22 1    
    44   22   23 1    
    45   22   24 1    
    46   22   90 1    
    47   23   91 1    
    48   23   92 1    
    49   23   93 1    
    50   24   25 am   BACKBONE|DICT|INTERRES
    51   24   94 1    
    52   25   26 2    
    53   25   27 1    
    54   27   28 1    
    55   27   29 1    
    56   27   95 1    
    57   28   96 1    
    58   28   97 1    
    59   28   98 1    
    60   29   30 am   BACKBONE|DICT|INTERRES
    61   29   99 1    
    62   30   31 2    
    63   30   32 1    
    64   32   33 1    
    65   32   34 1    
    66   32  100 1    
    67   33  101 1    
    68   33  102 1    
    69   33  103 1    
    70   34   35 am   BACKBONE|DICT|INTERRES
    71   34  104 1    
    72   35   36 2    
    73   37   38 2    
    74   37   39 am   BACKBONE|DICT|INTERRES
    75   39   40 1    
    76   39  105 1    
    77   40   41 1    
    78   40   42 1    
    79   40  106 1    
    80   41  107 1    
    81   41  108 1    
    82   41  109 1    
    83   42   43 2    
    84   42   44 am   BACKBONE|DICT|INTERRES
    85   44   45 1    
    86   44  110 1    
    87   45   46 1    
    88   45   47 1    
    89   45  111 1    
    90   46  112 1    
    91   46  113 1    
    92   46  114 1    
    93   47   48 2    
    94   47   49 am   BACKBONE|DICT|INTERRES
    95   49   50 1    
    96   49  115 1    
    97   50   51 1    
    98   50   52 1    
    99   50  116 1    
   100   51  117 1    
   101   51  118 1    
   102   51  119 1    
   103   52   53 2    
   104   52   54 am   BACKBONE|DICT|INTERRES
   105   54   55 1    
   106   54  120 1    
   107   55   56 1    
   108   55   57 1    
   109   55  121 1    
   110   56  122 1    
   111   56  123 1    
   112   56  124 1    
   113   57   58 2    
   114   57   59 am   BACKBONE|DICT|INTERRES
   115   59   60 1    
   116   59  125 1    
   117   60   61 1    
   118   60   62 1    
   119   60  126 1    
   120   61  127 1    
   121   61  128 1    
   122   61  129 1    
   123   62   63 2    
   124   62   64 am   BACKBONE|DICT|INTERRES
   125   64   65 1    
   126   64  130 1    
   127   65   66 1    
   128   65   69 1    
   129   65  131 1    
   130   66   67 am   BACKBONE|DICT|INTERRES
   131   66   68 2    
   132   67  132 1    
   133   67  133 1    
   134   69   70 1    
   135   69  134 1    
   136   69  135 1    
   137   70   71 1    
   138   71  136 1    
   139   71  137 1    
@<TRIPOS>SUBSTRUCTURE
     1 UNK         1 GROUP             0       ****    0 ROOT    
