@<TRIPOS>MOLECULE
3R136
137   139    1
SMALL
USER_CHARGES


@<TRIPOS>ATOM
      1 CA         30.3923   20.6431   -1.1701 C.3       0 UNK        -0.1979 
      2 C          29.6551   21.9739   -1.1916 C.2       0 UNK         0.4864 
      3 O          28.4756   22.0144   -1.5423 O.2       0 UNK        -0.5359 
      4 N          30.3411   23.0622   -0.8186 N.am      1 UNK        -0.4318 
      5 CA         29.7950   24.4239   -0.7574 C.3       1 UNK         0.0824 
      6 C6         30.9117   25.4987   -0.8259 C.3       12 UNK        -0.0944 
      7 S7         32.2412   25.2674    0.4075 S.3       12 UNK        -0.2672 
      8 C8         32.2724   26.8662    1.2868 C.3       12 UNK         0.0333 
      9 C9         31.3672   26.9259    2.5157 C.ar      12 UNK        -0.0807 
     10 C10        31.4081   25.9169    3.4843 C.ar      12 UNK        -0.0894 
     11 C11        30.6429   26.0172    4.6509 C.ar      12 UNK        -0.0804 
     12 C12        29.8206   27.1306    4.8424 C.ar      12 UNK        -0.0824 
     13 C13        29.7800   28.1548    3.8937 C.ar      12 UNK        -0.0762 
     14 C14        30.5545   28.0442    2.7349 C.ar      12 UNK        -0.0782 
     15 C15        28.9568   29.4083    4.1655 C.3       12 UNK         0.0230 
     16 S16        27.2303   29.2504    3.6029 S.3       12 UNK        -0.2608 
     17 C17        27.3252   29.8836    1.8918 C.3       12 UNK        -0.0989 
     18 CA         27.4730   28.7337    0.8674 C.3       5 UNK         0.0716 
     19 N          26.3555   27.7871    0.8550 N.am      5 UNK        -0.4135 
     20 C          25.0929   28.0090    0.4640 C.2       4 UNK         0.5031 
     21 O          24.6469   29.1071    0.1300 O.2       4 UNK        -0.5229 
     22 CA         24.1711   26.7780    0.4222 C.3       4 UNK         0.0329 
     23 CB         24.3058   26.0564   -0.9288 C.3       4 UNK        -0.2001 
     24 N          24.4558   25.8332    1.5034 N.am      4 UNK        -0.4303 
     25 C          24.1525   26.0319    2.7918 C.2       3 UNK         0.5044 
     26 O          23.5020   26.9945    3.1998 O.2       3 UNK        -0.5152 
     27 CA         24.6792   25.0002    3.8055 C.3       3 UNK         0.0319 
     28 CB         23.8008   23.7335    3.8324 C.3       3 UNK        -0.2001 
     29 N          26.1065   24.6815    3.6437 N.am      3 UNK        -0.4354 
     30 C          26.7151   24.0233    2.6465 C.2       2 UNK         0.4964 
     31 O          26.1262   23.5158    1.6891 O.2       2 UNK        -0.5047 
     32 CA         28.2458   23.9232    2.7583 C.3       2 UNK         0.0288 
     33 CB         28.6418   22.7299    3.6433 C.3       2 UNK        -0.2113 
     34 N          28.9414   23.8062    1.4747 N.am      2 UNK        -0.4145 
     35 C          28.8686   24.6691    0.4501 C.2       1 UNK         0.5006 
     36 O          28.1318   25.6557    0.4270 O.2       1 UNK        -0.5103 
     37 C          27.7937   29.1988   -0.5645 C.2       5 UNK         0.5055 
     38 O          27.7356   30.3908   -0.8711 O.2       5 UNK        -0.5220 
     39 N          28.1072   28.2157   -1.4219 N.am      6 UNK        -0.4450 
     40 CA         28.4251   28.3972   -2.8440 C.3       6 UNK         0.0367 
     41 CB         28.4211   27.0254   -3.5378 C.3       6 UNK        -0.1929 
     42 C          29.7551   29.1318   -3.1116 C.2       6 UNK         0.5070 
     43 O          29.9690   29.5974   -4.2313 O.2       6 UNK        -0.5237 
     44 N          30.6158   29.2270   -2.0940 N.am      7 UNK        -0.4739 
     45 CA         31.8416   30.0178   -2.0717 C.3       7 UNK         0.0276 
     46 CB         33.0535   29.0865   -2.2458 C.3       7 UNK        -0.1927 
     47 C          31.8936   30.7519   -0.7261 C.2       7 UNK         0.5013 
     48 O          31.2535   30.3077    0.2300 O.2       7 UNK        -0.5193 
     49 N          32.6471   31.8552   -0.6657 N.am      8 UNK        -0.4253 
     50 CA         32.8275   32.6518    0.5480 C.3       8 UNK         0.0242 
     51 CB         33.2980   34.0660    0.1639 C.3       8 UNK        -0.2000 
     52 C          33.8233   31.9677    1.4985 C.2       8 UNK         0.4948 
     53 O          35.0212   31.9496    1.2065 O.2       8 UNK        -0.5275 
     54 N          33.3160   31.4243    2.6090 N.am      9 UNK        -0.4246 
     55 CA         34.0796   30.7885    3.6791 C.3       9 UNK         0.0261 
     56 CB         34.5377   29.3812    3.2509 C.3       9 UNK        -0.1959 
     57 C          33.1855   30.6990    4.9208 C.2       9 UNK         0.5033 
     58 O          31.9600   30.7563    4.7917 O.2       9 UNK        -0.5390 
     59 N          33.8137   30.5379    6.0911 N.am      10 UNK        -0.4215 
     60 CA         33.1333   30.3010    7.3698 C.3       10 UNK         0.0240 
     61 CB         33.8376   31.1196    8.4661 C.3       10 UNK        -0.1982 
     62 C          33.0976   28.8103    7.7607 C.2       10 UNK         0.4970 
     63 O          32.3034   28.4528    8.6311 O.2       10 UNK        -0.4916 
     64 N          33.9640   27.9943    7.1384 N.am      11 UNK        -0.4279 
     65 CA         34.2307   26.5707    7.4141 C.3       11 UNK         0.1003 
     66 C          34.4994   26.2245    8.9126 C.2       11 UNK         0.5709 
     67 N          34.1986   25.0139    9.3642 N.am      11 UNK        -0.7358 
     68 O          35.0551   27.0303    9.6576 O.2       11 UNK        -0.4999 
     69 C69        33.2976   25.5991    6.6293 C.3       12 UNK        -0.0954 
     70 S70        31.5710   25.5036    7.2142 S.3       12 UNK        -0.2268 
     71 C71        30.7101   24.9324    5.7152 C.3       12 UNK         0.0203 
     72 H72        31.4254   20.7542   -0.8408 H         1 UNK         0.0888 
     73 H73        29.8938   19.9485   -0.4945 H         1 UNK         0.0888 
     74 H74        30.4002   20.2028   -2.1669 H         1 UNK         0.0888 
     75 H75        31.3112   22.9786   -0.5455 H         1 UNK         0.3017 
     76 H76        29.1643   24.5566   -1.6387 H         1 UNK         0.0873 
     77 H77        31.3775   25.4687   -1.8121 H         1 UNK         0.0745 
     78 H78        30.4922   26.5021   -0.7385 H         1 UNK         0.0745 
     79 H79        33.2983   27.0359    1.6125 H         1 UNK         0.0705 
     80 H80        32.0410   27.6731    0.5914 H         1 UNK         0.0705 
     81 H81        32.0547   25.0626    3.3389 H         1 UNK         0.1334 
     82 H82        29.2386   27.2156    5.7500 H         1 UNK         0.1417 
     83 H83        30.5432   28.8512    2.0198 H         1 UNK         0.1562 
     84 H84        29.4287   30.2803    3.7108 H         1 UNK         0.0748 
     85 H85        28.9521   29.6082    5.2381 H         1 UNK         0.0748 
     86 H86        28.1612   30.5807    1.8105 H         1 UNK         0.0940 
     87 H87        26.4279   30.4692    1.6854 H         1 UNK         0.0940 
     88 H88        28.3401   28.1513    1.1746 H         1 UNK         0.0703 
     89 H89        26.6349   26.8282    1.0296 H         1 UNK         0.3081 
     90 H90        23.1408   27.1249    0.5268 H         1 UNK         0.0719 
     91 H91        25.3125   25.6631   -1.0793 H         1 UNK         0.0809 
     92 H92        23.6063   25.2236   -1.0043 H         1 UNK         0.0809 
     93 H93        24.0926   26.7343   -1.7566 H         1 UNK         0.0809 
     94 H94        24.9926   25.0001    1.2748 H         1 UNK         0.2990 
     95 H95        24.5991   25.4659    4.7893 H         1 UNK         0.0690 
     96 H96        24.1453   23.0287    4.5891 H         1 UNK         0.0788 
     97 H97        23.7912   23.2167    2.8725 H         1 UNK         0.0788 
     98 H98        22.7667   23.9857    4.0712 H         1 UNK         0.0788 
     99 H99        26.6969   25.0646    4.3693 H         1 UNK         0.2993 
    100 H100       28.6029   24.8438    3.2211 H         1 UNK         0.0949 
    101 H101       29.7216   22.6792    3.7835 H         1 UNK         0.0767 
    102 H102       28.1917   22.8061    4.6341 H         1 UNK         0.0767 
    103 H103       28.3154   21.7839    3.2090 H         1 UNK         0.0767 
    104 H104       29.5637   23.0196    1.3731 H         1 UNK         0.3013 
    105 H105       28.1036   27.2667   -1.0669 H         1 UNK         0.3121 
    106 H106       27.6298   29.0031   -3.2833 H         1 UNK         0.0774 
    107 H107       28.5410   27.1373   -4.6163 H         1 UNK         0.0815 
    108 H108       29.2377   26.3942   -3.1886 H         1 UNK         0.0815 
    109 H109       27.4838   26.4937   -3.3719 H         1 UNK         0.0815 
    110 H110       30.3200   28.9067   -1.1818 H         1 UNK         0.2987 
    111 H111       31.8281   30.7617   -2.8717 H         1 UNK         0.0949 
    112 H112       33.9877   29.6490   -2.2258 H         1 UNK         0.0806 
    113 H113       33.1069   28.3362   -1.4567 H         1 UNK         0.0806 
    114 H114       33.0121   28.5619   -3.2005 H         1 UNK         0.0806 
    115 H115       33.1788   32.1372   -1.4767 H         1 UNK         0.3010 
    116 H116       31.8636   32.7493    1.0535 H         1 UNK         0.0829 
    117 H117       32.5629   34.5718   -0.4624 H         1 UNK         0.0813 
    118 H118       33.4440   34.6816    1.0525 H         1 UNK         0.0813 
    119 H119       34.2444   34.0476   -0.3781 H         1 UNK         0.0813 
    120 H120       32.3199   31.4665    2.7929 H         1 UNK         0.3038 
    121 H121       34.9476   31.4101    3.9093 H         1 UNK         0.0769 
    122 H122       33.6840   28.7178    3.1186 H         1 UNK         0.0811 
    123 H123       35.1853   28.9307    4.0033 H         1 UNK         0.0811 
    124 H124       35.0978   29.4009    2.3161 H         1 UNK         0.0811 
    125 H125       34.8240   30.5543    6.1086 H         1 UNK         0.3204 
    126 H126       32.0976   30.6431    7.3104 H         1 UNK         0.0748 
    127 H127       33.8251   32.1849    8.2347 H         1 UNK         0.0771 
    128 H128       33.3395   30.9934    9.4286 H         1 UNK         0.0771 
    129 H129       34.8770   30.8150    8.5956 H         1 UNK         0.0771 
    130 H130       34.5697   28.4053    6.4472 H         1 UNK         0.2980 
    131 H131       35.2155   26.4241    6.9693 H         1 UNK         0.0545 
    132 H132       34.3983   24.7826   10.3245 H         1 UNK         0.3459 
    133 H133       33.7320   24.3469    8.7701 H         1 UNK         0.3459 
    134 H134       33.2961   25.8950    5.5803 H         1 UNK         0.0616 
    135 H135       33.7118   24.5899    6.6391 H         1 UNK         0.0616 
    136 H136       29.6971   24.6314    5.9849 H         1 UNK         0.0634 
    137 H137       31.2065   24.0386    5.3342 H         1 UNK         0.0634 
@<TRIPOS>BOND
     1    1    2 1    
     2    1   72 1    
     3    1   73 1    
     4    1   74 1    
     5    2    3 2    
     6    2    4 am   BACKBONE|DICT|INTERRES
     7    4    5 1    
     8    4   75 1    
     9    5    6 1    
    10    5   35 1    
    11    5   76 1    
    12    6    7 1    
    13    6   77 1    
    14    6   78 1    
    15    7    8 1    
    16    8    9 1    
    17    8   79 1    
    18    8   80 1    
    19    9   10 ar   
    20    9   14 ar   
    21   10   11 ar   
    22   10   81 1    
    23   11   12 ar   
    24   11   71 1    
    25   12   13 ar   
    26   12   82 1    
    27   13   14 ar   
    28   13   15 1    
    29   14   83 1    
    30   15   16 1    
    31   15   84 1    
    32   15   85 1    
    33   16   17 1    
    34   17   18 1    
    35   17   86 1    
    36   17   87 1    
    37   18   19 1    
    38   18   37 1    
    39   18   88 1    
    40   19   20 am   BACKBONE|DICT|INTERRES
    41   19   89 1    
    42   20   21 2    
    43   20   22 1    
    44   22   23 1    
    45   22   24 1    
    46   22   90 1    
    47   23   91 1    
    48   23   92 1    
    49   23   93 1    
    50   24   25 am   BACKBONE|DICT|INTERRES
    51   24   94 1    
    52   25   26 2    
    53   25   27 1    
    54   27   28 1    
    55   27   29 1    
    56   27   95 1    
    57   28   96 1    
    58   28   97 1    
    59   28   98 1    
    60   29   30 am   BACKBONE|DICT|INTERRES
    61   29   99 1    
    62   30   31 2    
    63   30   32 1    
    64   32   33 1    
    65   32   34 1    
    66   32  100 1    
    67   33  101 1    
    68   33  102 1    
    69   33  103 1    
    70   34   35 am   BACKBONE|DICT|INTERRES
    71   34  104 1    
    72   35   36 2    
    73   37   38 2    
    74   37   39 am   BACKBONE|DICT|INTERRES
    75   39   40 1    
    76   39  105 1    
    77   40   41 1    
    78   40   42 1    
    79   40  106 1    
    80   41  107 1    
    81   41  108 1    
    82   41  109 1    
    83   42   43 2    
    84   42   44 am   BACKBONE|DICT|INTERRES
    85   44   45 1    
    86   44  110 1    
    87   45   46 1    
    88   45   47 1    
    89   45  111 1    
    90   46  112 1    
    91   46  113 1    
    92   46  114 1    
    93   47   48 2    
    94   47   49 am   BACKBONE|DICT|INTERRES
    95   49   50 1    
    96   49  115 1    
    97   50   51 1    
    98   50   52 1    
    99   50  116 1    
   100   51  117 1    
   101   51  118 1    
   102   51  119 1    
   103   52   53 2    
   104   52   54 am   BACKBONE|DICT|INTERRES
   105   54   55 1    
   106   54  120 1    
   107   55   56 1    
   108   55   57 1    
   109   55  121 1    
   110   56  122 1    
   111   56  123 1    
   112   56  124 1    
   113   57   58 2    
   114   57   59 am   BACKBONE|DICT|INTERRES
   115   59   60 1    
   116   59  125 1    
   117   60   61 1    
   118   60   62 1    
   119   60  126 1    
   120   61  127 1    
   121   61  128 1    
   122   61  129 1    
   123   62   63 2    
   124   62   64 am   BACKBONE|DICT|INTERRES
   125   64   65 1    
   126   64  130 1    
   127   65   66 1    
   128   65   69 1    
   129   65  131 1    
   130   66   67 am   BACKBONE|DICT|INTERRES
   131   66   68 2    
   132   67  132 1    
   133   67  133 1    
   134   69   70 1    
   135   69  134 1    
   136   69  135 1    
   137   70   71 1    
   138   71  136 1    
   139   71  137 1    
@<TRIPOS>SUBSTRUCTURE
     1 UNK         1 GROUP             0       ****    0 ROOT    
