@<TRIPOS>MOLECULE
3R136
137   139    1
SMALL
USER_CHARGES


@<TRIPOS>ATOM
      1 CA         28.2554   18.0367    3.3508 C.3       0 UNK        -0.1979 
      2 C          28.6878   19.3963    2.8216 C.2       0 UNK         0.4864 
      3 O          29.2633   20.1855    3.5716 O.2       0 UNK        -0.5359 
      4 N          28.4101   19.6712    1.5379 N.am      1 UNK        -0.4318 
      5 CA         28.7331   20.9175    0.8248 C.3       1 UNK         0.0824 
      6 C6         30.2669   21.1599    0.7117 C.3       12 UNK        -0.0944 
      7 S7         30.7591   21.8800   -0.8909 S.3       12 UNK        -0.2672 
      8 C8         32.4776   22.3776   -0.5463 C.3       12 UNK         0.0333 
      9 C9         32.5483   23.7741    0.0543 C.ar      12 UNK        -0.0807 
     10 C10        32.4895   23.9542    1.4399 C.ar      12 UNK        -0.0894 
     11 C11        32.5266   25.2352    1.9988 C.ar      12 UNK        -0.0804 
     12 C12        32.6330   26.3412    1.1468 C.ar      12 UNK        -0.0824 
     13 C13        32.7164   26.1778   -0.2393 C.ar      12 UNK        -0.0762 
     14 C14        32.6748   24.8895   -0.7798 C.ar      12 UNK        -0.0782 
     15 C15        32.8764   27.3987   -1.1394 C.3       12 UNK         0.0230 
     16 S16        31.5828   27.5670   -2.4169 S.3       12 UNK        -0.2608 
     17 C17        30.0203   27.4201   -1.4872 C.3       12 UNK        -0.0989 
     18 CA         29.5631   28.7400   -0.8051 C.3       5 UNK         0.0716 
     19 N          28.1076   28.8984   -0.8835 N.am      5 UNK        -0.4135 
     20 C          27.3729   29.8707   -0.3230 C.2       4 UNK         0.5031 
     21 O          27.8502   30.8609    0.2308 O.2       4 UNK        -0.5229 
     22 CA         25.8436   29.6710   -0.3167 C.3       4 UNK         0.0329 
     23 CB         25.1898   30.5221   -1.4164 C.3       4 UNK        -0.2001 
     24 N          25.4060   28.2723   -0.4563 N.am      4 UNK        -0.4303 
     25 C          25.7612   27.2607    0.3503 C.2       3 UNK         0.5044 
     26 O          26.5107   27.3910    1.3234 O.2       3 UNK        -0.5152 
     27 CA         25.2598   25.8644   -0.0384 C.3       3 UNK         0.0319 
     28 CB         25.8896   25.4088   -1.3726 C.3       3 UNK        -0.2001 
     29 N          25.6292   24.9420    1.0304 N.am      3 UNK        -0.4354 
     30 C          25.1935   23.6909    1.1932 C.2       2 UNK         0.4964 
     31 O          24.3730   23.1410    0.4553 O.2       2 UNK        -0.5047 
     32 CA         25.8012   22.9079    2.3674 C.3       2 UNK         0.0288 
     33 CB         24.7141   22.2331    3.2224 C.3       2 UNK        -0.2113 
     34 N          26.7239   21.8898    1.8677 N.am      2 UNK        -0.4145 
     35 C          27.9437   22.1380    1.3650 C.2       1 UNK         0.5006 
     36 O          28.4359   23.2675    1.3250 O.2       1 UNK        -0.5103 
     37 C          30.0793   28.8031    0.6486 C.2       5 UNK         0.5055 
     38 O          31.0719   29.4822    0.9110 O.2       5 UNK        -0.5220 
     39 N          29.3778   28.1239    1.5704 N.am      6 UNK        -0.4450 
     40 CA         29.7258   28.0622    2.9899 C.3       6 UNK         0.0367 
     41 CB         28.8679   26.9972    3.6905 C.3       6 UNK        -0.1929 
     42 C          29.5957   29.4177    3.6950 C.2       6 UNK         0.5070 
     43 O          30.4315   29.7391    4.5391 O.2       6 UNK        -0.5237 
     44 N          28.5747   30.1969    3.3145 N.am      7 UNK        -0.4739 
     45 CA         28.3616   31.5633    3.7901 C.3       7 UNK         0.0276 
     46 CB         26.9218   32.0031    3.4788 C.3       7 UNK        -0.1927 
     47 C          29.3804   32.5428    3.1877 C.2       7 UNK         0.5013 
     48 O          29.9058   33.3842    3.9160 O.2       7 UNK        -0.5193 
     49 N          29.6579   32.3994    1.8830 N.am      8 UNK        -0.4253 
     50 CA         30.6253   33.2073    1.1360 C.3       8 UNK         0.0242 
     51 CB         30.5145   32.8910   -0.3644 C.3       8 UNK        -0.2000 
     52 C          32.0707   33.0250    1.6277 C.2       8 UNK         0.4948 
     53 O          32.7727   34.0190    1.8184 O.2       8 UNK        -0.5275 
     54 N          32.4840   31.7679    1.8402 N.am      9 UNK        -0.4246 
     55 CA         33.8026   31.4137    2.3738 C.3       9 UNK         0.0261 
     56 CB         34.1175   29.9573    2.0039 C.3       9 UNK        -0.1959 
     57 C          33.9190   31.6043    3.8966 C.2       9 UNK         0.5033 
     58 O          35.0422   31.6592    4.3996 O.2       9 UNK        -0.5390 
     59 N          32.7750   31.6799    4.5941 N.am      10 UNK        -0.4215 
     60 CA         32.6151   31.7351    6.0511 C.3       10 UNK         0.0240 
     61 CB         33.1880   33.0479    6.6273 C.3       10 UNK        -0.1982 
     62 C          33.1702   30.4690    6.7314 C.2       10 UNK         0.4970 
     63 O          34.0040   30.5634    7.6350 O.2       10 UNK        -0.4916 
     64 N          32.7054   29.3046    6.2604 N.am      11 UNK        -0.4279 
     65 CA         33.0539   27.9792    6.7940 C.3       11 UNK         0.1003 
     66 C          32.5692   27.7815    8.2574 C.2       11 UNK         0.5709 
     67 N          33.3266   27.0554    9.0687 N.am      11 UNK        -0.7358 
     68 O          31.4977   28.2412    8.6495 O.2       11 UNK        -0.4999 
     69 C69        32.5175   26.8377    5.8920 C.3       12 UNK        -0.0954 
     70 S70        33.2508   26.8339    4.2243 S.3       12 UNK        -0.2268 
     71 C71        32.3912   25.3871    3.5145 C.3       12 UNK         0.0203 
     72 H72        27.5626   18.1611    4.1826 H         1 UNK         0.0888 
     73 H73        27.7622   17.4378    2.5854 H         1 UNK         0.0888 
     74 H74        29.1219   17.4814    3.7089 H         1 UNK         0.0888 
     75 H75        27.9388   18.9705    0.9814 H         1 UNK         0.3017 
     76 H76        28.3455   20.7575   -0.1826 H         1 UNK         0.0873 
     77 H77        30.6276   21.7752    1.5360 H         1 UNK         0.0745 
     78 H78        30.8048   20.2143    0.7981 H         1 UNK         0.0745 
     79 H79        33.0422   22.3492   -1.4795 H         1 UNK         0.0705 
     80 H80        32.9519   21.6506    0.1149 H         1 UNK         0.0705 
     81 H81        32.3990   23.0934    2.0874 H         1 UNK         0.1334 
     82 H82        32.6479   27.3379    1.5598 H         1 UNK         0.1417 
     83 H83        32.7298   24.7577   -1.8521 H         1 UNK         0.1562 
     84 H84        33.8456   27.3386   -1.6361 H         1 UNK         0.0748 
     85 H85        32.9021   28.3154   -0.5511 H         1 UNK         0.0748 
     86 H86        30.0691   26.5807   -0.7897 H         1 UNK         0.0940 
     87 H87        29.2833   27.1118   -2.2305 H         1 UNK         0.0940 
     88 H88        29.9874   29.5899   -1.3431 H         1 UNK         0.0703 
     89 H89        27.6045   28.1457   -1.3268 H         1 UNK         0.3081 
     90 H90        25.4830   30.0272    0.6505 H         1 UNK         0.0719 
     91 H91        25.4859   30.1924   -2.4131 H         1 UNK         0.0809 
     92 H92        24.1020   30.4815   -1.3571 H         1 UNK         0.0809 
     93 H93        25.4772   31.5704   -1.3214 H         1 UNK         0.0809 
     94 H94        24.7902   28.0732   -1.2322 H         1 UNK         0.2990 
     95 H95        24.1720   25.8964   -0.1255 H         1 UNK         0.0690 
     96 H96        26.9772   25.3547   -1.3045 H         1 UNK         0.0788 
     97 H97        25.6435   26.0903   -2.1874 H         1 UNK         0.0788 
     98 H98        25.5293   24.4239   -1.6696 H         1 UNK         0.0788 
     99 H99        26.2950   25.3370    1.6849 H         1 UNK         0.2993 
    100 H100       26.3559   23.5962    3.0095 H         1 UNK         0.0949 
    101 H101       24.1395   21.5036    2.6500 H         1 UNK         0.0767 
    102 H102       25.1479   21.7190    4.0804 H         1 UNK         0.0767 
    103 H103       24.0102   22.9714    3.6092 H         1 UNK         0.0767 
    104 H104       26.3817   20.9407    1.8465 H         1 UNK         0.3013 
    105 H105       28.5152   27.6627    1.2992 H         1 UNK         0.3121 
    106 H106       30.7706   27.7632    3.0578 H         1 UNK         0.0774 
    107 H107       29.1672   26.8802    4.7325 H         1 UNK         0.0815 
    108 H108       27.8102   27.2626    3.6854 H         1 UNK         0.0815 
    109 H109       28.9706   26.0238    3.2100 H         1 UNK         0.0815 
    110 H110       27.9584   29.8609    2.5880 H         1 UNK         0.2987 
    111 H111       28.4928   31.5727    4.8748 H         1 UNK         0.0949 
    112 H112       26.7201   32.0129    2.4072 H         1 UNK         0.0806 
    113 H113       26.1948   31.3421    3.9507 H         1 UNK         0.0806 
    114 H114       26.7343   33.0102    3.8537 H         1 UNK         0.0806 
    115 H115       29.1335   31.7087    1.3509 H         1 UNK         0.3010 
    116 H116       30.3573   34.2560    1.2816 H         1 UNK         0.0829 
    117 H117       31.2017   33.5074   -0.9454 H         1 UNK         0.0813 
    118 H118       30.7520   31.8483   -0.5764 H         1 UNK         0.0813 
    119 H119       29.5086   33.0858   -0.7372 H         1 UNK         0.0813 
    120 H120       31.8657   30.9941    1.5973 H         1 UNK         0.3038 
    121 H121       34.5524   32.0535    1.9035 H         1 UNK         0.0769 
    122 H122       35.1094   29.6668    2.3525 H         1 UNK         0.0811 
    123 H123       34.0940   29.8068    0.9251 H         1 UNK         0.0811 
    124 H124       33.3997   29.2758    2.4589 H         1 UNK         0.0811 
    125 H125       31.9116   31.5864    4.0758 H         1 UNK         0.3204 
    126 H126       31.5402   31.7386    6.2390 H         1 UNK         0.0748 
    127 H127       32.9702   33.1320    7.6926 H         1 UNK         0.0771 
    128 H128       34.2707   33.1074    6.5123 H         1 UNK         0.0771 
    129 H129       32.7502   33.9175    6.1369 H         1 UNK         0.0771 
    130 H130       31.9772   29.3299    5.5514 H         1 UNK         0.2980 
    131 H131       34.1441   27.9192    6.7989 H         1 UNK         0.0545 
    132 H132       33.0214   26.9029   10.0172 H         1 UNK         0.3459 
    133 H133       34.2006   26.6629    8.7547 H         1 UNK         0.3459 
    134 H134       32.7267   25.8649    6.3415 H         1 UNK         0.0616 
    135 H135       31.4324   26.9081    5.7982 H         1 UNK         0.0616 
    136 H136       32.7719   24.4948    4.0138 H         1 UNK         0.0634 
    137 H137       31.3301   25.4444    3.7553 H         1 UNK         0.0634 
@<TRIPOS>BOND
     1    1    2 1    
     2    1   72 1    
     3    1   73 1    
     4    1   74 1    
     5    2    3 2    
     6    2    4 am   BACKBONE|DICT|INTERRES
     7    4    5 1    
     8    4   75 1    
     9    5    6 1    
    10    5   35 1    
    11    5   76 1    
    12    6    7 1    
    13    6   77 1    
    14    6   78 1    
    15    7    8 1    
    16    8    9 1    
    17    8   79 1    
    18    8   80 1    
    19    9   10 ar   
    20    9   14 ar   
    21   10   11 ar   
    22   10   81 1    
    23   11   12 ar   
    24   11   71 1    
    25   12   13 ar   
    26   12   82 1    
    27   13   14 ar   
    28   13   15 1    
    29   14   83 1    
    30   15   16 1    
    31   15   84 1    
    32   15   85 1    
    33   16   17 1    
    34   17   18 1    
    35   17   86 1    
    36   17   87 1    
    37   18   19 1    
    38   18   37 1    
    39   18   88 1    
    40   19   20 am   BACKBONE|DICT|INTERRES
    41   19   89 1    
    42   20   21 2    
    43   20   22 1    
    44   22   23 1    
    45   22   24 1    
    46   22   90 1    
    47   23   91 1    
    48   23   92 1    
    49   23   93 1    
    50   24   25 am   BACKBONE|DICT|INTERRES
    51   24   94 1    
    52   25   26 2    
    53   25   27 1    
    54   27   28 1    
    55   27   29 1    
    56   27   95 1    
    57   28   96 1    
    58   28   97 1    
    59   28   98 1    
    60   29   30 am   BACKBONE|DICT|INTERRES
    61   29   99 1    
    62   30   31 2    
    63   30   32 1    
    64   32   33 1    
    65   32   34 1    
    66   32  100 1    
    67   33  101 1    
    68   33  102 1    
    69   33  103 1    
    70   34   35 am   BACKBONE|DICT|INTERRES
    71   34  104 1    
    72   35   36 2    
    73   37   38 2    
    74   37   39 am   BACKBONE|DICT|INTERRES
    75   39   40 1    
    76   39  105 1    
    77   40   41 1    
    78   40   42 1    
    79   40  106 1    
    80   41  107 1    
    81   41  108 1    
    82   41  109 1    
    83   42   43 2    
    84   42   44 am   BACKBONE|DICT|INTERRES
    85   44   45 1    
    86   44  110 1    
    87   45   46 1    
    88   45   47 1    
    89   45  111 1    
    90   46  112 1    
    91   46  113 1    
    92   46  114 1    
    93   47   48 2    
    94   47   49 am   BACKBONE|DICT|INTERRES
    95   49   50 1    
    96   49  115 1    
    97   50   51 1    
    98   50   52 1    
    99   50  116 1    
   100   51  117 1    
   101   51  118 1    
   102   51  119 1    
   103   52   53 2    
   104   52   54 am   BACKBONE|DICT|INTERRES
   105   54   55 1    
   106   54  120 1    
   107   55   56 1    
   108   55   57 1    
   109   55  121 1    
   110   56  122 1    
   111   56  123 1    
   112   56  124 1    
   113   57   58 2    
   114   57   59 am   BACKBONE|DICT|INTERRES
   115   59   60 1    
   116   59  125 1    
   117   60   61 1    
   118   60   62 1    
   119   60  126 1    
   120   61  127 1    
   121   61  128 1    
   122   61  129 1    
   123   62   63 2    
   124   62   64 am   BACKBONE|DICT|INTERRES
   125   64   65 1    
   126   64  130 1    
   127   65   66 1    
   128   65   69 1    
   129   65  131 1    
   130   66   67 am   BACKBONE|DICT|INTERRES
   131   66   68 2    
   132   67  132 1    
   133   67  133 1    
   134   69   70 1    
   135   69  134 1    
   136   69  135 1    
   137   70   71 1    
   138   71  136 1    
   139   71  137 1    
@<TRIPOS>SUBSTRUCTURE
     1 UNK         1 GROUP             0       ****    0 ROOT    
