@<TRIPOS>MOLECULE
3R136
137   139    1
SMALL
USER_CHARGES


@<TRIPOS>ATOM
      1 CA         27.2458   20.2400   -0.3469 C.3       0 UNK        -0.1979 
      2 C          28.3856   21.2081   -0.6277 C.2       0 UNK         0.4864 
      3 O          29.5229   20.9421   -0.2371 O.2       0 UNK        -0.5359 
      4 N          28.0889   22.3239   -1.3012 N.am      1 UNK        -0.4318 
      5 CA         29.0343   23.3662   -1.6958 C.3       1 UNK         0.0824 
      6 C6         29.5222   24.2239   -0.4915 C.3       12 UNK        -0.0944 
      7 S7         31.2512   24.7660   -0.6911 S.3       12 UNK        -0.2672 
      8 C8         32.1334   23.5422    0.3288 C.3       12 UNK         0.0333 
      9 C9         32.0024   23.8344    1.8175 C.ar      12 UNK        -0.0807 
     10 C10        32.8372   24.7810    2.4187 C.ar      12 UNK        -0.0894 
     11 C11        32.7491   25.0337    3.7905 C.ar      12 UNK        -0.0804 
     12 C12        31.8076   24.3454    4.5609 C.ar      12 UNK        -0.0824 
     13 C13        30.9599   23.4047    3.9695 C.ar      12 UNK        -0.0762 
     14 C14        31.0695   23.1448    2.5996 C.ar      12 UNK        -0.0782 
     15 C15        29.9425   22.6500    4.8124 C.3       12 UNK         0.0230 
     16 S16        28.2592   23.3154    4.6128 S.3       12 UNK        -0.2608 
     17 C17        28.3478   24.9060    5.5091 C.3       12 UNK        -0.0989 
     18 CA         28.2580   26.1276    4.5612 C.3       5 UNK         0.0716 
     19 N          27.0424   26.1035    3.7411 N.am      5 UNK        -0.4135 
     20 C          26.7645   26.9783    2.7682 C.2       4 UNK         0.5031 
     21 O          27.5493   27.8575    2.3962 O.2       4 UNK        -0.5229 
     22 CA         25.3557   26.8871    2.1530 C.3       4 UNK         0.0329 
     23 CB         24.3371   27.6392    3.0257 C.3       4 UNK        -0.2001 
     24 N          25.3239   27.4370    0.7961 N.am      4 UNK        -0.4303 
     25 C          25.8857   26.8342   -0.2575 C.2       3 UNK         0.5044 
     26 O          26.3614   25.6964   -0.2094 O.2       3 UNK        -0.5152 
     27 CA         25.9600   27.6250   -1.5754 C.3       3 UNK         0.0319 
     28 CB         26.1193   29.1481   -1.3787 C.3       3 UNK        -0.2001 
     29 N          27.0929   27.0845   -2.3154 N.am      3 UNK        -0.4354 
     30 C          27.2978   27.0973   -3.6349 C.2       2 UNK         0.4964 
     31 O          26.5735   27.6858   -4.4382 O.2       2 UNK        -0.5047 
     32 CA         28.5229   26.3092   -4.1474 C.3       2 UNK         0.0288 
     33 CB         29.6616   27.2738   -4.5189 C.3       2 UNK        -0.2113 
     34 N          29.0344   25.3163   -3.1904 N.am      2 UNK        -0.4145 
     35 C          28.3845   24.2051   -2.8142 C.2       1 UNK         0.5006 
     36 O          27.3047   23.8522   -3.2995 O.2       1 UNK        -0.5103 
     37 C          28.3145   27.4505    5.3552 C.2       5 UNK         0.5055 
     38 O          27.3156   27.8204    5.9763 O.2       5 UNK        -0.5220 
     39 N          29.4569   28.1461    5.2791 N.am      6 UNK        -0.4450 
     40 CA         29.7169   29.4978    5.7991 C.3       6 UNK         0.0367 
     41 CB         29.4585   29.5983    7.3181 C.3       6 UNK        -0.1929 
     42 C          29.0401   30.6375    5.0073 C.2       6 UNK         0.5070 
     43 O          29.1582   31.7926    5.4190 O.2       6 UNK        -0.5237 
     44 N          28.3871   30.3240    3.8789 N.am      7 UNK        -0.4739 
     45 CA         27.9126   31.2990    2.8913 C.3       7 UNK         0.0276 
     46 CB         26.4147   31.0865    2.6184 C.3       7 UNK        -0.1927 
     47 C          28.7208   31.1757    1.5911 C.2       7 UNK         0.5013 
     48 O          29.0457   32.1961    0.9840 O.2       7 UNK        -0.5193 
     49 N          29.0469   29.9347    1.1974 N.am      8 UNK        -0.4253 
     50 CA         29.8495   29.5942    0.0185 C.3       8 UNK         0.0242 
     51 CB         29.8121   28.0703   -0.1747 C.3       8 UNK        -0.2000 
     52 C          31.3116   30.0693    0.0935 C.2       8 UNK         0.4948 
     53 O          31.9256   30.2959   -0.9500 O.2       8 UNK        -0.5275 
     54 N          31.8420   30.1997    1.3130 N.am      9 UNK        -0.4246 
     55 CA         33.1973   30.6338    1.6261 C.3       9 UNK         0.0261 
     56 CB         34.1781   29.4587    1.4417 C.3       9 UNK        -0.1959 
     57 C          33.2087   31.1460    3.0703 C.2       9 UNK         0.5033 
     58 O          32.2495   30.9123    3.8122 O.2       9 UNK        -0.5390 
     59 N          34.3049   31.8061    3.4625 N.am      10 UNK        -0.4215 
     60 CA         34.5581   32.2759    4.8276 C.3       10 UNK         0.0240 
     61 CB         35.5933   33.4159    4.7816 C.3       10 UNK        -0.1982 
     62 C          34.9954   31.1122    5.7396 C.2       10 UNK         0.4970 
     63 O          36.1506   31.0585    6.1655 O.2       10 UNK        -0.4916 
     64 N          34.0669   30.1812    5.9833 N.am      11 UNK        -0.4279 
     65 CA         34.2764   28.9400    6.7474 C.3       11 UNK         0.1003 
     66 C          34.5248   29.1347    8.2720 C.2       11 UNK         0.5709 
     67 N          34.2447   30.2969    8.8501 N.am      11 UNK        -0.7358 
     68 O          34.9845   28.2121    8.9407 O.2       11 UNK        -0.4999 
     69 C69        33.1326   27.9182    6.5096 C.3       12 UNK        -0.0954 
     70 S70        32.7983   27.6076    4.7409 S.3       12 UNK        -0.2268 
     71 C71        33.6737   26.0442    4.4464 C.3       12 UNK         0.0203 
     72 H72        27.1309   20.0986    0.7274 H         1 UNK         0.0888 
     73 H73        26.2973   20.6010   -0.7445 H         1 UNK         0.0888 
     74 H74        27.4564   19.2710   -0.7984 H         1 UNK         0.0888 
     75 H75        27.1524   22.4824   -1.6548 H         1 UNK         0.3017 
     76 H76        29.8869   22.8562   -2.1499 H         1 UNK         0.0873 
     77 H77        28.8954   25.1016   -0.3327 H         1 UNK         0.0745 
     78 H78        29.4406   23.6641    0.4385 H         1 UNK         0.0745 
     79 H79        33.1881   23.5512    0.0500 H         1 UNK         0.0705 
     80 H80        31.7688   22.5403    0.0967 H         1 UNK         0.0705 
     81 H81        33.5598   25.3158    1.8173 H         1 UNK         0.1334 
     82 H82        31.7388   24.5447    5.6216 H         1 UNK         0.1417 
     83 H83        30.4255   22.4047    2.1430 H         1 UNK         0.1562 
     84 H84        30.2204   22.6646    5.8675 H         1 UNK         0.0748 
     85 H85        29.9396   21.5997    4.5168 H         1 UNK         0.0748 
     86 H86        29.2682   24.9443    6.0943 H         1 UNK         0.0940 
     87 H87        27.5326   24.9257    6.2356 H         1 UNK         0.0940 
     88 H88        29.1104   26.0911    3.8782 H         1 UNK         0.0703 
     89 H89        26.3484   25.4198    4.0032 H         1 UNK         0.3081 
     90 H90        25.0645   25.8352    2.1071 H         1 UNK         0.0719 
     91 H91        24.5799   28.6978    3.1169 H         1 UNK         0.0809 
     92 H92        23.3296   27.5601    2.6170 H         1 UNK         0.0809 
     93 H93        24.3073   27.2283    4.0359 H         1 UNK         0.0809 
     94 H94        24.9810   28.3800    0.6928 H         1 UNK         0.2990 
     95 H95        25.0443   27.4239   -2.1348 H         1 UNK         0.0690 
     96 H96        26.2977   29.6548   -2.3272 H         1 UNK         0.0788 
     97 H97        26.9510   29.3856   -0.7160 H         1 UNK         0.0788 
     98 H98        25.2190   29.5903   -0.9513 H         1 UNK         0.0788 
     99 H99        27.6893   26.4943   -1.7515 H         1 UNK         0.2993 
    100 H100       28.2105   25.7789   -5.0496 H         1 UNK         0.0949 
    101 H101       30.0199   27.8299   -3.6516 H         1 UNK         0.0767 
    102 H102       30.5089   26.7410   -4.9512 H         1 UNK         0.0767 
    103 H103       29.3291   28.0037   -5.2585 H         1 UNK         0.0767 
    104 H104       29.9205   25.5223   -2.7477 H         1 UNK         0.3013 
    105 H105       30.2225   27.7489    4.7490 H         1 UNK         0.3121 
    106 H106       30.7839   29.6597    5.6521 H         1 UNK         0.0774 
    107 H107       29.8642   30.5277    7.7193 H         1 UNK         0.0815 
    108 H108       28.3939   29.5877    7.5521 H         1 UNK         0.0815 
    109 H109       29.9309   28.7795    7.8602 H         1 UNK         0.0815 
    110 H110       28.2905   29.3477    3.6253 H         1 UNK         0.2987 
    111 H111       28.0455   32.3171    3.2639 H         1 UNK         0.0949 
    112 H112       26.0288   31.8634    1.9573 H         1 UNK         0.0806 
    113 H113       26.2207   30.1292    2.1367 H         1 UNK         0.0806 
    114 H114       25.8337   31.1251    3.5399 H         1 UNK         0.0806 
    115 H115       28.6483   29.1491    1.7073 H         1 UNK         0.3010 
    116 H116       29.3884   30.0696   -0.8495 H         1 UNK         0.0829 
    117 H117       28.7907   27.6985   -0.2160 H         1 UNK         0.0813 
    118 H118       30.3070   27.7816   -1.1024 H         1 UNK         0.0813 
    119 H119       30.3162   27.5486    0.6405 H         1 UNK         0.0813 
    120 H120       31.2611   30.0576    2.1305 H         1 UNK         0.3038 
    121 H121       33.4727   31.4586    0.9655 H         1 UNK         0.0769 
    122 H122       35.2010   29.7510    1.6809 H         1 UNK         0.0811 
    123 H123       34.1803   29.1008    0.4121 H         1 UNK         0.0811 
    124 H124       33.9201   28.6163    2.0845 H         1 UNK         0.0811 
    125 H125       35.0583   31.9286    2.8008 H         1 UNK         0.3204 
    126 H126       33.6327   32.6854    5.2391 H         1 UNK         0.0748 
    127 H127       35.7951   33.8001    5.7825 H         1 UNK         0.0771 
    128 H128       36.5441   33.0855    4.3610 H         1 UNK         0.0771 
    129 H129       35.2344   34.2527    4.1821 H         1 UNK         0.0771 
    130 H130       33.1709   30.2785    5.5181 H         1 UNK         0.2980 
    131 H131       35.1914   28.4902    6.3573 H         1 UNK         0.0545 
    132 H132       33.8691   31.0589    8.3097 H         1 UNK         0.3459 
    133 H133       34.4138   30.4110    9.8370 H         1 UNK         0.3459 
    134 H134       32.2099   28.2819    6.9620 H         1 UNK         0.0616 
    135 H135       33.3474   26.9735    7.0114 H         1 UNK         0.0616 
    136 H136       34.0653   25.6274    5.3747 H         1 UNK         0.0634 
    137 H137       34.5406   26.2428    3.8145 H         1 UNK         0.0634 
@<TRIPOS>BOND
     1    1    2 1    
     2    1   72 1    
     3    1   73 1    
     4    1   74 1    
     5    2    3 2    
     6    2    4 am   BACKBONE|DICT|INTERRES
     7    4    5 1    
     8    4   75 1    
     9    5    6 1    
    10    5   35 1    
    11    5   76 1    
    12    6    7 1    
    13    6   77 1    
    14    6   78 1    
    15    7    8 1    
    16    8    9 1    
    17    8   79 1    
    18    8   80 1    
    19    9   10 ar   
    20    9   14 ar   
    21   10   11 ar   
    22   10   81 1    
    23   11   12 ar   
    24   11   71 1    
    25   12   13 ar   
    26   12   82 1    
    27   13   14 ar   
    28   13   15 1    
    29   14   83 1    
    30   15   16 1    
    31   15   84 1    
    32   15   85 1    
    33   16   17 1    
    34   17   18 1    
    35   17   86 1    
    36   17   87 1    
    37   18   19 1    
    38   18   37 1    
    39   18   88 1    
    40   19   20 am   BACKBONE|DICT|INTERRES
    41   19   89 1    
    42   20   21 2    
    43   20   22 1    
    44   22   23 1    
    45   22   24 1    
    46   22   90 1    
    47   23   91 1    
    48   23   92 1    
    49   23   93 1    
    50   24   25 am   BACKBONE|DICT|INTERRES
    51   24   94 1    
    52   25   26 2    
    53   25   27 1    
    54   27   28 1    
    55   27   29 1    
    56   27   95 1    
    57   28   96 1    
    58   28   97 1    
    59   28   98 1    
    60   29   30 am   BACKBONE|DICT|INTERRES
    61   29   99 1    
    62   30   31 2    
    63   30   32 1    
    64   32   33 1    
    65   32   34 1    
    66   32  100 1    
    67   33  101 1    
    68   33  102 1    
    69   33  103 1    
    70   34   35 am   BACKBONE|DICT|INTERRES
    71   34  104 1    
    72   35   36 2    
    73   37   38 2    
    74   37   39 am   BACKBONE|DICT|INTERRES
    75   39   40 1    
    76   39  105 1    
    77   40   41 1    
    78   40   42 1    
    79   40  106 1    
    80   41  107 1    
    81   41  108 1    
    82   41  109 1    
    83   42   43 2    
    84   42   44 am   BACKBONE|DICT|INTERRES
    85   44   45 1    
    86   44  110 1    
    87   45   46 1    
    88   45   47 1    
    89   45  111 1    
    90   46  112 1    
    91   46  113 1    
    92   46  114 1    
    93   47   48 2    
    94   47   49 am   BACKBONE|DICT|INTERRES
    95   49   50 1    
    96   49  115 1    
    97   50   51 1    
    98   50   52 1    
    99   50  116 1    
   100   51  117 1    
   101   51  118 1    
   102   51  119 1    
   103   52   53 2    
   104   52   54 am   BACKBONE|DICT|INTERRES
   105   54   55 1    
   106   54  120 1    
   107   55   56 1    
   108   55   57 1    
   109   55  121 1    
   110   56  122 1    
   111   56  123 1    
   112   56  124 1    
   113   57   58 2    
   114   57   59 am   BACKBONE|DICT|INTERRES
   115   59   60 1    
   116   59  125 1    
   117   60   61 1    
   118   60   62 1    
   119   60  126 1    
   120   61  127 1    
   121   61  128 1    
   122   61  129 1    
   123   62   63 2    
   124   62   64 am   BACKBONE|DICT|INTERRES
   125   64   65 1    
   126   64  130 1    
   127   65   66 1    
   128   65   69 1    
   129   65  131 1    
   130   66   67 am   BACKBONE|DICT|INTERRES
   131   66   68 2    
   132   67  132 1    
   133   67  133 1    
   134   69   70 1    
   135   69  134 1    
   136   69  135 1    
   137   70   71 1    
   138   71  136 1    
   139   71  137 1    
@<TRIPOS>SUBSTRUCTURE
     1 UNK         1 GROUP             0       ****    0 ROOT    
