@<TRIPOS>MOLECULE
3R136
137   139    1
SMALL
USER_CHARGES


@<TRIPOS>ATOM
      1 CA         29.0901   19.9384   -0.9978 C.3       0 UNK        -0.1979 
      2 C          28.7530   21.2252   -0.2613 C.2       0 UNK         0.4864 
      3 O          28.8235   22.3056   -0.8482 O.2       0 UNK        -0.5359 
      4 N          28.3755   21.1269    1.0200 N.am      1 UNK        -0.4318 
      5 CA         28.0545   22.2523    1.9095 C.3       1 UNK         0.0824 
      6 C6         28.2874   21.8985    3.4008 C.3       12 UNK        -0.0944 
      7 S7         29.9920   21.3377    3.7477 S.3       12 UNK        -0.2672 
      8 C8         30.8136   22.8746    4.3053 C.3       12 UNK         0.0333 
      9 C9         31.7265   23.5500    3.2768 C.ar      12 UNK        -0.0807 
     10 C10        32.7248   24.4122    3.7428 C.ar      12 UNK        -0.0894 
     11 C11        33.6128   25.0435    2.8656 C.ar      12 UNK        -0.0804 
     12 C12        33.4744   24.8183    1.4895 C.ar      12 UNK        -0.0824 
     13 C13        32.4739   23.9736    1.0003 C.ar      12 UNK        -0.0762 
     14 C14        31.6117   23.3378    1.8969 C.ar      12 UNK        -0.0782 
     15 C15        32.3593   23.7068   -0.4951 C.3       12 UNK         0.0230 
     16 S16        31.9929   25.2114   -1.4541 S.3       12 UNK        -0.2608 
     17 C17        30.2310   25.4984   -1.0799 C.3       12 UNK        -0.0989 
     18 CA         29.9410   26.9953   -0.7853 C.3       5 UNK         0.0716 
     19 N          28.6133   27.3973   -1.2569 N.am      5 UNK        -0.4135 
     20 C          28.3412   28.5201   -1.9374 C.2       4 UNK         0.5031 
     21 O          29.1934   29.3398   -2.2815 O.2       4 UNK        -0.5229 
     22 CA         26.8696   28.7784   -2.3185 C.3       4 UNK         0.0329 
     23 CB         26.5823   28.2461   -3.7319 C.3       4 UNK        -0.2001 
     24 N          25.9140   28.1868   -1.3799 N.am      4 UNK        -0.4303 
     25 C          25.6996   28.6307   -0.1336 C.2       3 UNK         0.5044 
     26 O          26.1996   29.6609    0.3151 O.2       3 UNK        -0.5152 
     27 CA         24.7910   27.7803    0.7781 C.3       3 UNK         0.0319 
     28 CB         23.3954   28.4160    0.8827 C.3       3 UNK        -0.2001 
     29 N          24.6470   26.3661    0.3971 N.am      3 UNK        -0.4354 
     30 C          25.6541   25.4931    0.2647 C.2       2 UNK         0.4964 
     31 O          26.8447   25.8092    0.3335 O.2       2 UNK        -0.5047 
     32 CA         25.2837   24.0355   -0.0464 C.3       2 UNK         0.0288 
     33 CB         25.0528   23.8513   -1.5549 C.3       2 UNK        -0.2113 
     34 N          26.3778   23.1621    0.3731 N.am      2 UNK        -0.4145 
     35 C          26.6492   22.8357    1.6423 C.2       1 UNK         0.5006 
     36 O          25.8574   23.0096    2.5713 O.2       1 UNK        -0.5103 
     37 C          30.0745   27.3324    0.7094 C.2       5 UNK         0.5055 
     38 O          31.0107   28.0297    1.1021 O.2       5 UNK        -0.5220 
     39 N          29.0896   26.9005    1.5096 N.am      6 UNK        -0.4450 
     40 CA         28.9493   27.1853    2.9378 C.3       6 UNK         0.0367 
     41 CB         28.1227   26.0590    3.5836 C.3       6 UNK        -0.1929 
     42 C          28.3339   28.5809    3.1686 C.2       6 UNK         0.5070 
     43 O          27.3323   28.7156    3.8745 O.2       6 UNK        -0.5237 
     44 N          28.9311   29.5996    2.5413 N.am      7 UNK        -0.4739 
     45 CA         28.4662   30.9850    2.5183 C.3       7 UNK         0.0276 
     46 CB         29.0545   31.6742    1.2730 C.3       7 UNK        -0.1927 
     47 C          28.8167   31.7228    3.8211 C.2       7 UNK         0.5013 
     48 O          29.7120   32.5710    3.8199 O.2       7 UNK        -0.5193 
     49 N          28.1272   31.3627    4.9135 N.am      8 UNK        -0.4253 
     50 CA         28.2638   31.8911    6.2781 C.3       8 UNK         0.0242 
     51 CB         27.7979   33.3627    6.3535 C.3       8 UNK        -0.2000 
     52 C          29.6806   31.6663    6.8368 C.2       8 UNK         0.4948 
     53 O          29.9447   30.5963    7.3860 O.2       8 UNK        -0.5275 
     54 N          30.5710   32.6526    6.6519 N.am      9 UNK        -0.4246 
     55 CA         32.0112   32.5451    6.9096 C.3       9 UNK         0.0261 
     56 CB         32.6530   33.9377    6.8049 C.3       9 UNK        -0.1959 
     57 C          32.7175   31.5529    5.9647 C.2       9 UNK         0.5033 
     58 O          33.7455   30.9900    6.3474 O.2       9 UNK        -0.5390 
     59 N          32.1397   31.3392    4.7712 N.am      10 UNK        -0.4215 
     60 CA         32.4959   30.3265    3.7766 C.3       10 UNK         0.0240 
     61 CB         32.1074   28.9255    4.3051 C.3       10 UNK        -0.1982 
     62 C          33.9626   30.4505    3.3284 C.2       10 UNK         0.4970 
     63 O          34.3170   31.4438    2.6916 O.2       10 UNK        -0.4916 
     64 N          34.7766   29.4491    3.6729 N.am      11 UNK        -0.4279 
     65 CA         36.2142   29.3744    3.3875 C.3       11 UNK         0.1003 
     66 C          37.0933   30.2835    4.2965 C.2       11 UNK         0.5709 
     67 N          36.5616   30.9096    5.3413 N.am      11 UNK        -0.7358 
     68 O          38.2864   30.4302    4.0415 O.2       11 UNK        -0.4999 
     69 C69        36.7146   27.9045    3.4076 C.3       12 UNK        -0.0954 
     70 S70        35.7732   26.8192    2.2793 S.3       12 UNK        -0.2268 
     71 C71        34.7032   25.9341    3.4680 C.3       12 UNK         0.0203 
     72 H72        28.9904   19.0632   -0.3560 H         1 UNK         0.0888 
     73 H73        28.4264   19.8112   -1.8526 H         1 UNK         0.0888 
     74 H74        30.1155   19.9756   -1.3643 H         1 UNK         0.0888 
     75 H75        28.3182   20.2132    1.4472 H         1 UNK         0.3017 
     76 H76        28.7284   23.0766    1.6730 H         1 UNK         0.0873 
     77 H77        27.6076   21.1006    3.7055 H         1 UNK         0.0745 
     78 H78        28.0521   22.7467    4.0456 H         1 UNK         0.0745 
     79 H79        30.0766   23.5971    4.6552 H         1 UNK         0.0705 
     80 H80        31.4098   22.6118    5.1805 H         1 UNK         0.0705 
     81 H81        32.8245   24.5811    4.8068 H         1 UNK         0.1334 
     82 H82        34.1423   25.2876    0.7819 H         1 UNK         0.1417 
     83 H83        30.8698   22.6591    1.5076 H         1 UNK         0.1562 
     84 H84        31.5986   22.9537   -0.7074 H         1 UNK         0.0748 
     85 H85        33.3043   23.2914   -0.8479 H         1 UNK         0.0748 
     86 H86        29.8958   24.8455   -0.2711 H         1 UNK         0.0940 
     87 H87        29.6739   25.1714   -1.9596 H         1 UNK         0.0940 
     88 H88        30.6869   27.5948   -1.3119 H         1 UNK         0.0703 
     89 H89        27.8405   26.8130   -0.9542 H         1 UNK         0.3081 
     90 H90        26.7166   29.8599   -2.3239 H         1 UNK         0.0719 
     91 H91        27.2622   28.6897   -4.4608 H         1 UNK         0.0809 
     92 H92        26.7039   27.1636   -3.7900 H         1 UNK         0.0809 
     93 H93        25.5679   28.4888   -4.0491 H         1 UNK         0.0809 
     94 H94        25.4415   27.3448   -1.6737 H         1 UNK         0.2990 
     95 H95        25.2463   27.7975    1.7710 H         1 UNK         0.0690 
     96 H96        23.4630   29.4593    1.1949 H         1 UNK         0.0788 
     97 H97        22.7775   27.9012    1.6186 H         1 UNK         0.0788 
     98 H98        22.8704   28.3953   -0.0732 H         1 UNK         0.0788 
     99 H99        23.7004   26.0285    0.2927 H         1 UNK         0.2993 
    100 H100       24.3760   23.7682    0.4991 H         1 UNK         0.0949 
    101 H101       24.8061   22.8162   -1.7923 H         1 UNK         0.0767 
    102 H102       24.2246   24.4685   -1.9056 H         1 UNK         0.0767 
    103 H103       25.9352   24.1251   -2.1355 H         1 UNK         0.0767 
    104 H104       27.1205   23.0044   -0.3033 H         1 UNK         0.3013 
    105 H105       28.3045   26.4079    1.0854 H         1 UNK         0.3121 
    106 H106       29.9390   27.1737    3.3962 H         1 UNK         0.0774 
    107 H107       28.0498   26.1962    4.6631 H         1 UNK         0.0815 
    108 H108       27.1067   26.0246    3.1879 H         1 UNK         0.0815 
    109 H109       28.5819   25.0871    3.4100 H         1 UNK         0.0815 
    110 H110       29.7588   29.3843    1.9955 H         1 UNK         0.2987 
    111 H111       27.3783   30.9910    2.4185 H         1 UNK         0.0949 
    112 H112       28.7262   32.7124    1.2099 H         1 UNK         0.0806 
    113 H113       30.1452   31.6756    1.2851 H         1 UNK         0.0806 
    114 H114       28.7304   31.1769    0.3580 H         1 UNK         0.0806 
    115 H115       27.4975   30.5729    4.8074 H         1 UNK         0.3010 
    116 H116       27.5902   31.3044    6.9050 H         1 UNK         0.0829 
    117 H117       28.3511   34.0162    5.6786 H         1 UNK         0.0813 
    118 H118       26.7422   33.4487    6.0961 H         1 UNK         0.0813 
    119 H119       27.9135   33.7585    7.3635 H         1 UNK         0.0813 
    120 H120       30.2599   33.4750    6.1540 H         1 UNK         0.3038 
    121 H121       32.1450   32.1787    7.9296 H         1 UNK         0.0769 
    122 H122       32.5372   34.3624    5.8069 H         1 UNK         0.0811 
    123 H123       33.7223   33.8900    7.0165 H         1 UNK         0.0811 
    124 H124       32.2134   34.6328    7.5204 H         1 UNK         0.0811 
    125 H125       31.3255   31.9025    4.5340 H         1 UNK         0.3204 
    126 H126       31.8869   30.5284    2.8943 H         1 UNK         0.0748 
    127 H127       32.2640   28.1585    3.5451 H         1 UNK         0.0771 
    128 H128       32.6724   28.6420    5.1938 H         1 UNK         0.0771 
    129 H129       31.0539   28.8994    4.5807 H         1 UNK         0.0771 
    130 H130       34.3970   28.6975    4.2257 H         1 UNK         0.2980 
    131 H131       36.3592   29.7493    2.3725 H         1 UNK         0.0545 
    132 H132       37.1503   31.4941    5.9124 H         1 UNK         0.3459 
    133 H133       35.5776   30.8115    5.5712 H         1 UNK         0.3459 
    134 H134       36.6777   27.4988    4.4204 H         1 UNK         0.0616 
    135 H135       37.7616   27.8583    3.1027 H         1 UNK         0.0616 
    136 H136       35.3404   25.3184    4.1045 H         1 UNK         0.0634 
    137 H137       34.2275   26.6650    4.1214 H         1 UNK         0.0634 
@<TRIPOS>BOND
     1    1    2 1    
     2    1   72 1    
     3    1   73 1    
     4    1   74 1    
     5    2    3 2    
     6    2    4 am   BACKBONE|DICT|INTERRES
     7    4    5 1    
     8    4   75 1    
     9    5    6 1    
    10    5   35 1    
    11    5   76 1    
    12    6    7 1    
    13    6   77 1    
    14    6   78 1    
    15    7    8 1    
    16    8    9 1    
    17    8   79 1    
    18    8   80 1    
    19    9   10 ar   
    20    9   14 ar   
    21   10   11 ar   
    22   10   81 1    
    23   11   12 ar   
    24   11   71 1    
    25   12   13 ar   
    26   12   82 1    
    27   13   14 ar   
    28   13   15 1    
    29   14   83 1    
    30   15   16 1    
    31   15   84 1    
    32   15   85 1    
    33   16   17 1    
    34   17   18 1    
    35   17   86 1    
    36   17   87 1    
    37   18   19 1    
    38   18   37 1    
    39   18   88 1    
    40   19   20 am   BACKBONE|DICT|INTERRES
    41   19   89 1    
    42   20   21 2    
    43   20   22 1    
    44   22   23 1    
    45   22   24 1    
    46   22   90 1    
    47   23   91 1    
    48   23   92 1    
    49   23   93 1    
    50   24   25 am   BACKBONE|DICT|INTERRES
    51   24   94 1    
    52   25   26 2    
    53   25   27 1    
    54   27   28 1    
    55   27   29 1    
    56   27   95 1    
    57   28   96 1    
    58   28   97 1    
    59   28   98 1    
    60   29   30 am   BACKBONE|DICT|INTERRES
    61   29   99 1    
    62   30   31 2    
    63   30   32 1    
    64   32   33 1    
    65   32   34 1    
    66   32  100 1    
    67   33  101 1    
    68   33  102 1    
    69   33  103 1    
    70   34   35 am   BACKBONE|DICT|INTERRES
    71   34  104 1    
    72   35   36 2    
    73   37   38 2    
    74   37   39 am   BACKBONE|DICT|INTERRES
    75   39   40 1    
    76   39  105 1    
    77   40   41 1    
    78   40   42 1    
    79   40  106 1    
    80   41  107 1    
    81   41  108 1    
    82   41  109 1    
    83   42   43 2    
    84   42   44 am   BACKBONE|DICT|INTERRES
    85   44   45 1    
    86   44  110 1    
    87   45   46 1    
    88   45   47 1    
    89   45  111 1    
    90   46  112 1    
    91   46  113 1    
    92   46  114 1    
    93   47   48 2    
    94   47   49 am   BACKBONE|DICT|INTERRES
    95   49   50 1    
    96   49  115 1    
    97   50   51 1    
    98   50   52 1    
    99   50  116 1    
   100   51  117 1    
   101   51  118 1    
   102   51  119 1    
   103   52   53 2    
   104   52   54 am   BACKBONE|DICT|INTERRES
   105   54   55 1    
   106   54  120 1    
   107   55   56 1    
   108   55   57 1    
   109   55  121 1    
   110   56  122 1    
   111   56  123 1    
   112   56  124 1    
   113   57   58 2    
   114   57   59 am   BACKBONE|DICT|INTERRES
   115   59   60 1    
   116   59  125 1    
   117   60   61 1    
   118   60   62 1    
   119   60  126 1    
   120   61  127 1    
   121   61  128 1    
   122   61  129 1    
   123   62   63 2    
   124   62   64 am   BACKBONE|DICT|INTERRES
   125   64   65 1    
   126   64  130 1    
   127   65   66 1    
   128   65   69 1    
   129   65  131 1    
   130   66   67 am   BACKBONE|DICT|INTERRES
   131   66   68 2    
   132   67  132 1    
   133   67  133 1    
   134   69   70 1    
   135   69  134 1    
   136   69  135 1    
   137   70   71 1    
   138   71  136 1    
   139   71  137 1    
@<TRIPOS>SUBSTRUCTURE
     1 UNK         1 GROUP             0       ****    0 ROOT    
