@<TRIPOS>MOLECULE
3R136
137   139    1
SMALL
USER_CHARGES


@<TRIPOS>ATOM
      1 CA         28.5998   19.1965    0.0901 C.3       0 UNK        -0.1979 
      2 C          28.8039   20.0390   -1.1606 C.2       0 UNK         0.4864 
      3 O          28.6447   19.5327   -2.2728 O.2       0 UNK        -0.5359 
      4 N          29.1627   21.3164   -0.9860 N.am      1 UNK        -0.4318 
      5 CA         29.3190   22.3002   -2.0604 C.3       1 UNK         0.0824 
      6 C6         30.2772   23.4515   -1.6517 C.3       12 UNK        -0.0944 
      7 S7         29.8559   24.2998   -0.0858 S.3       12 UNK        -0.2672 
      8 C8         31.1327   23.6301    1.0258 C.3       12 UNK         0.0333 
      9 C9         31.1739   24.3808    2.3481 C.ar      12 UNK        -0.0807 
     10 C10        31.9244   25.5542    2.4527 C.ar      12 UNK        -0.0894 
     11 C11        31.9957   26.2490    3.6626 C.ar      12 UNK        -0.0804 
     12 C12        31.3294   25.7448    4.7823 C.ar      12 UNK        -0.0824 
     13 C13        30.5638   24.5766    4.6916 C.ar      12 UNK        -0.0762 
     14 C14        30.4875   23.9001    3.4684 C.ar      12 UNK        -0.0782 
     15 C15        29.8412   24.0296    5.9186 C.3       12 UNK         0.0230 
     16 S16        28.8672   25.2969    6.7993 S.3       12 UNK        -0.2608 
     17 C17        27.4801   25.5895    5.6480 C.3       12 UNK        -0.0989 
     18 CA         27.7306   26.7230    4.6213 C.3       5 UNK         0.0716 
     19 N          26.6363   26.8031    3.6536 N.am      5 UNK        -0.4135 
     20 C          26.6244   27.5821    2.5650 C.2       4 UNK         0.5031 
     21 O          27.5536   28.3287    2.2375 O.2       4 UNK        -0.5229 
     22 CA         25.3350   27.5374    1.7279 C.3       4 UNK         0.0329 
     23 CB         24.3580   28.6484    2.1460 C.3       4 UNK        -0.2001 
     24 N          25.6155   27.6394    0.2952 N.am      4 UNK        -0.4303 
     25 C          26.1288   26.6377   -0.4284 C.2       3 UNK         0.5044 
     26 O          26.3756   25.5195    0.0311 O.2       3 UNK        -0.5152 
     27 CA         26.3908   26.9240   -1.9129 C.3       3 UNK         0.0319 
     28 CB         27.6477   27.7931   -2.1107 C.3       3 UNK        -0.2001 
     29 N          26.5505   25.6472   -2.6006 N.am      3 UNK        -0.4354 
     30 C          26.4980   25.4303   -3.9177 C.2       2 UNK         0.4964 
     31 O          26.2901   26.3210   -4.7438 O.2       2 UNK        -0.5047 
     32 CA         26.7332   23.9782   -4.3873 C.3       2 UNK         0.0288 
     33 CB         26.8698   23.8637   -5.9180 C.3       2 UNK        -0.2113 
     34 N          27.9187   23.3806   -3.7614 N.am      2 UNK        -0.4145 
     35 C          27.9483   22.8199   -2.5445 C.2       1 UNK         0.5006 
     36 O          26.9553   22.7371   -1.8160 O.2       1 UNK        -0.5103 
     37 C          27.9666   28.0970    5.2838 C.2       5 UNK         0.5055 
     38 O          27.0102   28.7219    5.7474 O.2       5 UNK        -0.5220 
     39 N          29.2317   28.5396    5.2666 N.am      6 UNK        -0.4450 
     40 CA         29.7449   29.8391    5.7243 C.3       6 UNK         0.0367 
     41 CB         29.4316   30.0840    7.2151 C.3       6 UNK        -0.1929 
     42 C          29.3489   31.0395    4.8368 C.2       6 UNK         0.5070 
     43 O          29.7431   32.1627    5.1528 O.2       6 UNK        -0.5237 
     44 N          28.6221   30.8005    3.7356 N.am      7 UNK        -0.4739 
     45 CA         28.3641   31.7834    2.6787 C.3       7 UNK         0.0276 
     46 CB         26.8824   31.7394    2.2786 C.3       7 UNK        -0.1927 
     47 C          29.2524   31.5039    1.4570 C.2       7 UNK         0.5013 
     48 O          29.6745   32.4509    0.7933 O.2       7 UNK        -0.5193 
     49 N          29.5318   30.2161    1.1953 N.am      8 UNK        -0.4253 
     50 CA         30.4099   29.7145    0.1326 C.3       8 UNK         0.0242 
     51 CB         30.4356   28.1790    0.2093 C.3       8 UNK        -0.2000 
     52 C          31.8477   30.2644    0.1972 C.2       8 UNK         0.4948 
     53 O          32.4505   30.5163   -0.8468 O.2       8 UNK        -0.5275 
     54 N          32.3533   30.4479    1.4205 N.am      9 UNK        -0.4246 
     55 CA         33.6396   31.0347    1.7777 C.3       9 UNK         0.0261 
     56 CB         34.8025   30.0878    1.4161 C.3       9 UNK        -0.1959 
     57 C          33.5968   31.3178    3.2845 C.2       9 UNK         0.5033 
     58 O          32.6827   30.8455    3.9689 O.2       9 UNK        -0.5390 
     59 N          34.5898   32.0579    3.7904 N.am      10 UNK        -0.4215 
     60 CA         34.7359   32.4177    5.2051 C.3       10 UNK         0.0240 
     61 CB         35.6405   33.6606    5.3111 C.3       10 UNK        -0.1982 
     62 C          35.2403   31.2397    6.0668 C.2       10 UNK         0.4970 
     63 O          36.3035   31.3358    6.6828 O.2       10 UNK        -0.4916 
     64 N          34.4722   30.1446    6.0839 N.am      11 UNK        -0.4279 
     65 CA         34.7515   28.9216    6.8560 C.3       11 UNK         0.1003 
     66 C          34.5184   29.0582    8.3895 C.2       11 UNK         0.5709 
     67 N          33.8683   30.1093    8.8760 N.am      11 UNK        -0.7358 
     68 O          34.9436   28.1948    9.1535 O.2       11 UNK        -0.4999 
     69 C69        33.9897   27.6926    6.2924 C.3       12 UNK        -0.0954 
     70 S70        34.3898   27.3534    4.5431 S.3       12 UNK        -0.2268 
     71 C71        32.7701   27.5550    3.7413 C.3       12 UNK         0.0203 
     72 H72        27.5753   18.8272    0.1299 H         1 UNK         0.0888 
     73 H73        29.2718   18.3388    0.0789 H         1 UNK         0.0888 
     74 H74        28.7908   19.7648    1.0003 H         1 UNK         0.0888 
     75 H75        29.2205   21.6966   -0.0527 H         1 UNK         0.3017 
     76 H76        29.7756   21.7892   -2.9113 H         1 UNK         0.0873 
     77 H77        31.2912   23.0558   -1.5786 H         1 UNK         0.0745 
     78 H78        30.3291   24.2068   -2.4380 H         1 UNK         0.0745 
     79 H79        32.1091   23.6996    0.5435 H         1 UNK         0.0705 
     80 H80        30.9493   22.5683    1.1955 H         1 UNK         0.0705 
     81 H81        32.4485   25.9296    1.5842 H         1 UNK         0.1334 
     82 H82        31.3968   26.2629    5.7282 H         1 UNK         0.1417 
     83 H83        29.9053   22.9920    3.3891 H         1 UNK         0.1562 
     84 H84        30.5868   23.6263    6.6051 H         1 UNK         0.0748 
     85 H85        29.1878   23.1971    5.6529 H         1 UNK         0.0748 
     86 H86        26.5917   25.8104    6.2431 H         1 UNK         0.0940 
     87 H87        27.2626   24.6560    5.1263 H         1 UNK         0.0940 
     88 H88        28.6184   26.4635    4.0420 H         1 UNK         0.0703 
     89 H89        25.8151   26.2562    3.8650 H         1 UNK         0.3081 
     90 H90        24.8425   26.5790    1.9087 H         1 UNK         0.0719 
     91 H91        24.7317   29.6405    1.9004 H         1 UNK         0.0809 
     92 H92        23.3932   28.5282    1.6529 H         1 UNK         0.0809 
     93 H93        24.1744   28.6268    3.2212 H         1 UNK         0.0809 
     94 H94        25.4701   28.5396   -0.1376 H         1 UNK         0.2990 
     95 H95        25.5180   27.4401   -2.3181 H         1 UNK         0.0690 
     96 H96        27.7333   28.1351   -3.1421 H         1 UNK         0.0788 
     97 H97        28.5541   27.2360   -1.8736 H         1 UNK         0.0788 
     98 H98        27.6272   28.6818   -1.4785 H         1 UNK         0.0788 
     99 H99        26.6782   24.8566   -1.9728 H         1 UNK         0.2993 
    100 H100       25.8502   23.4064   -4.0928 H         1 UNK         0.0949 
    101 H101       27.7216   24.4338   -6.2914 H         1 UNK         0.0767 
    102 H102       26.9974   22.8264   -6.2283 H         1 UNK         0.0767 
    103 H103       25.9780   24.2409   -6.4207 H         1 UNK         0.0767 
    104 H104       28.7782   23.4455   -4.2882 H         1 UNK         0.3013 
    105 H105       29.9207   27.9369    4.8402 H         1 UNK         0.3121 
    106 H106       30.8296   29.7674    5.6410 H         1 UNK         0.0774 
    107 H107       29.9646   30.9605    7.5854 H         1 UNK         0.0815 
    108 H108       28.3693   30.2593    7.3857 H         1 UNK         0.0815 
    109 H109       29.7373   29.2373    7.8297 H         1 UNK         0.0815 
    110 H110       28.3002   29.8565    3.5589 H         1 UNK         0.2987 
    111 H111       28.5889   32.7917    3.0336 H         1 UNK         0.0949 
    112 H112       26.6428   32.5538    1.5938 H         1 UNK         0.0806 
    113 H113       26.6363   30.8090    1.7696 H         1 UNK         0.0806 
    114 H114       26.2288   31.8377    3.1454 H         1 UNK         0.0806 
    115 H115       29.0339   29.5088    1.7270 H         1 UNK         0.3010 
    116 H116       29.9750   30.0134   -0.8230 H         1 UNK         0.0829 
    117 H117       29.4317   27.7560    0.1974 H         1 UNK         0.0813 
    118 H118       30.9841   27.7501   -0.6302 H         1 UNK         0.0813 
    119 H119       30.9150   27.8352    1.1248 H         1 UNK         0.0813 
    120 H120       31.7724   30.2605    2.2295 H         1 UNK         0.3038 
    121 H121       33.7503   31.9822    1.2467 H         1 UNK         0.0769 
    122 H122       34.7525   29.1499    1.9682 H         1 UNK         0.0811 
    123 H123       35.7663   30.5437    1.6442 H         1 UNK         0.0811 
    124 H124       34.8110   29.8475    0.3532 H         1 UNK         0.0811 
    125 H125       35.3200   32.3774    3.1700 H         1 UNK         0.3204 
    126 H126       33.7529   32.6950    5.5928 H         1 UNK         0.0748 
    127 H127       35.7401   33.9850    6.3480 H         1 UNK         0.0771 
    128 H128       36.6445   33.4646    4.9323 H         1 UNK         0.0771 
    129 H129       35.2282   34.5003    4.7512 H         1 UNK         0.0771 
    130 H130       33.6381   30.1462    5.5052 H         1 UNK         0.2980 
    131 H131       35.8174   28.7137    6.7438 H         1 UNK         0.0545 
    132 H132       33.7298   30.1856    9.8712 H         1 UNK         0.3459 
    133 H133       33.5170   30.8240    8.2603 H         1 UNK         0.3459 
    134 H134       32.9158   27.8362    6.4143 H         1 UNK         0.0616 
    135 H135       34.2407   26.7931    6.8577 H         1 UNK         0.0616 
    136 H136       32.9306   27.9470    2.7375 H         1 UNK         0.0634 
    137 H137       32.1793   28.3062    4.2626 H         1 UNK         0.0634 
@<TRIPOS>BOND
     1    1    2 1    
     2    1   72 1    
     3    1   73 1    
     4    1   74 1    
     5    2    3 2    
     6    2    4 am   BACKBONE|DICT|INTERRES
     7    4    5 1    
     8    4   75 1    
     9    5    6 1    
    10    5   35 1    
    11    5   76 1    
    12    6    7 1    
    13    6   77 1    
    14    6   78 1    
    15    7    8 1    
    16    8    9 1    
    17    8   79 1    
    18    8   80 1    
    19    9   10 ar   
    20    9   14 ar   
    21   10   11 ar   
    22   10   81 1    
    23   11   12 ar   
    24   11   71 1    
    25   12   13 ar   
    26   12   82 1    
    27   13   14 ar   
    28   13   15 1    
    29   14   83 1    
    30   15   16 1    
    31   15   84 1    
    32   15   85 1    
    33   16   17 1    
    34   17   18 1    
    35   17   86 1    
    36   17   87 1    
    37   18   19 1    
    38   18   37 1    
    39   18   88 1    
    40   19   20 am   BACKBONE|DICT|INTERRES
    41   19   89 1    
    42   20   21 2    
    43   20   22 1    
    44   22   23 1    
    45   22   24 1    
    46   22   90 1    
    47   23   91 1    
    48   23   92 1    
    49   23   93 1    
    50   24   25 am   BACKBONE|DICT|INTERRES
    51   24   94 1    
    52   25   26 2    
    53   25   27 1    
    54   27   28 1    
    55   27   29 1    
    56   27   95 1    
    57   28   96 1    
    58   28   97 1    
    59   28   98 1    
    60   29   30 am   BACKBONE|DICT|INTERRES
    61   29   99 1    
    62   30   31 2    
    63   30   32 1    
    64   32   33 1    
    65   32   34 1    
    66   32  100 1    
    67   33  101 1    
    68   33  102 1    
    69   33  103 1    
    70   34   35 am   BACKBONE|DICT|INTERRES
    71   34  104 1    
    72   35   36 2    
    73   37   38 2    
    74   37   39 am   BACKBONE|DICT|INTERRES
    75   39   40 1    
    76   39  105 1    
    77   40   41 1    
    78   40   42 1    
    79   40  106 1    
    80   41  107 1    
    81   41  108 1    
    82   41  109 1    
    83   42   43 2    
    84   42   44 am   BACKBONE|DICT|INTERRES
    85   44   45 1    
    86   44  110 1    
    87   45   46 1    
    88   45   47 1    
    89   45  111 1    
    90   46  112 1    
    91   46  113 1    
    92   46  114 1    
    93   47   48 2    
    94   47   49 am   BACKBONE|DICT|INTERRES
    95   49   50 1    
    96   49  115 1    
    97   50   51 1    
    98   50   52 1    
    99   50  116 1    
   100   51  117 1    
   101   51  118 1    
   102   51  119 1    
   103   52   53 2    
   104   52   54 am   BACKBONE|DICT|INTERRES
   105   54   55 1    
   106   54  120 1    
   107   55   56 1    
   108   55   57 1    
   109   55  121 1    
   110   56  122 1    
   111   56  123 1    
   112   56  124 1    
   113   57   58 2    
   114   57   59 am   BACKBONE|DICT|INTERRES
   115   59   60 1    
   116   59  125 1    
   117   60   61 1    
   118   60   62 1    
   119   60  126 1    
   120   61  127 1    
   121   61  128 1    
   122   61  129 1    
   123   62   63 2    
   124   62   64 am   BACKBONE|DICT|INTERRES
   125   64   65 1    
   126   64  130 1    
   127   65   66 1    
   128   65   69 1    
   129   65  131 1    
   130   66   67 am   BACKBONE|DICT|INTERRES
   131   66   68 2    
   132   67  132 1    
   133   67  133 1    
   134   69   70 1    
   135   69  134 1    
   136   69  135 1    
   137   70   71 1    
   138   71  136 1    
   139   71  137 1    
@<TRIPOS>SUBSTRUCTURE
     1 UNK         1 GROUP             0       ****    0 ROOT    
