@<TRIPOS>MOLECULE
3R136
137   139    1
SMALL
USER_CHARGES


@<TRIPOS>ATOM
      1 CA         29.7122   21.4792   -2.4858 C.3       0 UNK        -0.1979 
      2 C          29.2511   22.9257   -2.5812 C.2       0 UNK         0.4864 
      3 O          28.6727   23.3214   -3.5949 O.2       0 UNK        -0.5359 
      4 N          29.4846   23.7188   -1.5271 N.am      1 UNK        -0.4318 
      5 CA         29.1502   25.1460   -1.4358 C.3       1 UNK         0.0824 
      6 C6         30.0431   25.8881   -0.4076 C.3       12 UNK        -0.0944 
      7 S7         31.8366   25.7687   -0.7356 S.3       12 UNK        -0.2672 
      8 C8         32.3704   24.3317    0.2579 C.3       12 UNK         0.0333 
      9 C9         32.1282   24.5073    1.7518 C.ar      12 UNK        -0.0807 
     10 C10        33.0701   25.1605    2.5521 C.ar      12 UNK        -0.0894 
     11 C11        32.8595   25.2966    3.9282 C.ar      12 UNK        -0.0804 
     12 C12        31.6926   24.7797    4.5008 C.ar      12 UNK        -0.0824 
     13 C13        30.7253   24.1540    3.7060 C.ar      12 UNK        -0.0762 
     14 C14        30.9686   23.9940    2.3398 C.ar      12 UNK        -0.0782 
     15 C15        29.4127   23.6366    4.2917 C.3       12 UNK         0.0230 
     16 S16        28.6358   24.7385    5.5256 S.3       12 UNK        -0.2608 
     17 C17        28.6624   26.3979    4.7560 C.3       12 UNK        -0.0989 
     18 CA         28.1253   26.5001    3.2980 C.3       5 UNK         0.0716 
     19 N          26.7843   25.9434    3.0903 N.am      5 UNK        -0.4135 
     20 C          25.6569   26.3026    3.7199 C.2       4 UNK         0.5031 
     21 O          25.6112   27.1423    4.6201 O.2       4 UNK        -0.5229 
     22 CA         24.3398   25.6419    3.2636 C.3       4 UNK         0.0329 
     23 CB         23.3396   26.7089    2.7845 C.3       4 UNK        -0.2001 
     24 N          24.4926   24.6492    2.1971 N.am      4 UNK        -0.4303 
     25 C          24.9664   23.4042    2.3190 C.2       3 UNK         0.5044 
     26 O          25.3621   22.9306    3.3834 O.2       3 UNK        -0.5152 
     27 CA         25.0416   22.5436    1.0392 C.3       3 UNK         0.0319 
     28 CB         23.7616   21.7032    0.8662 C.3       3 UNK        -0.2001 
     29 N          25.3715   23.2809   -0.1944 N.am      3 UNK        -0.4354 
     30 C          24.6660   24.2304   -0.8312 C.2       2 UNK         0.4964 
     31 O          23.5515   24.6059   -0.4646 O.2       2 UNK        -0.5047 
     32 CA         25.3259   24.9065   -2.0523 C.3       2 UNK         0.0288 
     33 CB         24.8449   26.3622   -2.2328 C.3       2 UNK        -0.2113 
     34 N          26.7956   24.8554   -2.0586 N.am      2 UNK        -0.4145 
     35 C          27.6443   25.3379   -1.1384 C.2       1 UNK         0.5006 
     36 O          27.2810   25.8635   -0.0819 O.2       1 UNK        -0.5103 
     37 C          28.2157   27.9372    2.7413 C.2       5 UNK         0.5055 
     38 O          28.7539   28.8287    3.4013 O.2       5 UNK        -0.5220 
     39 N          27.7097   28.1419    1.5170 N.am      6 UNK        -0.4450 
     40 CA         27.7385   29.4112    0.7815 C.3       6 UNK         0.0367 
     41 CB         26.5796   29.4187   -0.2322 C.3       6 UNK        -0.1929 
     42 C          29.1090   29.6497    0.1126 C.2       6 UNK         0.5070 
     43 O          29.1798   29.9133   -1.0890 O.2       6 UNK        -0.5237 
     44 N          30.1797   29.4975    0.8968 N.am      7 UNK        -0.4739 
     45 CA         31.5710   29.6080    0.4693 C.3       7 UNK         0.0276 
     46 CB         32.4384   28.8240    1.4675 C.3       7 UNK        -0.1927 
     47 C          32.0305   31.0717    0.4179 C.2       7 UNK         0.5013 
     48 O          31.4583   31.9283    1.0964 O.2       7 UNK        -0.5193 
     49 N          33.1207   31.3184   -0.3181 N.am      8 UNK        -0.4253 
     50 CA         33.8523   32.5892   -0.3311 C.3       8 UNK         0.0242 
     51 CB         34.4749   32.7944   -1.7254 C.3       8 UNK        -0.2000 
     52 C          34.9006   32.6236    0.8013 C.2       8 UNK         0.4948 
     53 O          36.0716   32.9176    0.5533 O.2       8 UNK        -0.5275 
     54 N          34.4677   32.2889    2.0209 N.am      9 UNK        -0.4246 
     55 CA         35.2705   32.1684    3.2329 C.3       9 UNK         0.0261 
     56 CB         36.0762   30.8547    3.2026 C.3       9 UNK        -0.1959 
     57 C          34.3209   32.1966    4.4352 C.2       9 UNK         0.5033 
     58 O          33.1185   31.9692    4.2702 O.2       9 UNK        -0.5390 
     59 N          34.8709   32.4401    5.6311 N.am      10 UNK        -0.4215 
     60 CA         34.1441   32.5021    6.9055 C.3       10 UNK         0.0240 
     61 CB         34.9703   33.3303    7.9087 C.3       10 UNK        -0.1982 
     62 C          33.7658   31.1080    7.4537 C.2       10 UNK         0.4970 
     63 O          34.0674   30.7945    8.6072 O.2       10 UNK        -0.4916 
     64 N          33.1250   30.2918    6.6120 N.am      11 UNK        -0.4279 
     65 CA         32.5985   28.9626    6.9448 C.3       11 UNK         0.1003 
     66 C          31.3620   29.0350    7.8823 C.2       11 UNK         0.5709 
     67 N          31.1409   28.0087    8.6927 N.am      11 UNK        -0.7358 
     68 O          30.5864   29.9895    7.8608 O.2       11 UNK        -0.4999 
     69 C69        32.2768   28.1535    5.6634 C.3       12 UNK        -0.0954 
     70 S70        33.7727   27.8083    4.6764 S.3       12 UNK        -0.2268 
     71 C71        33.8989   25.9959    4.7936 C.3       12 UNK         0.0203 
     72 H72        28.8609   20.8065   -2.5863 H         1 UNK         0.0888 
     73 H73        30.4175   21.2583   -3.2864 H         1 UNK         0.0888 
     74 H74        30.2019   21.2678   -1.5354 H         1 UNK         0.0888 
     75 H75        29.9417   23.3296   -0.7177 H         1 UNK         0.3017 
     76 H76        29.3365   25.6029   -2.4105 H         1 UNK         0.0873 
     77 H77        29.8253   25.5673    0.6069 H         1 UNK         0.0745 
     78 H78        29.8023   26.9500   -0.4289 H         1 UNK         0.0745 
     79 H79        31.8769   23.4301   -0.1045 H         1 UNK         0.0705 
     80 H80        33.4355   24.1723    0.0827 H         1 UNK         0.0705 
     81 H81        33.9689   25.5626    2.1046 H         1 UNK         0.1334 
     82 H82        31.5256   24.8815    5.5641 H         1 UNK         0.1417 
     83 H83        30.2399   23.4825    1.7267 H         1 UNK         0.1562 
     84 H84        29.5976   22.6687    4.7589 H         1 UNK         0.0748 
     85 H85        28.6836   23.4577    3.4997 H         1 UNK         0.0748 
     86 H86        29.6920   26.7557    4.7909 H         1 UNK         0.0940 
     87 H87        28.1062   27.0686    5.4130 H         1 UNK         0.0940 
     88 H88        28.7863   25.9111    2.6652 H         1 UNK         0.0703 
     89 H89        26.6987   25.2809    2.3331 H         1 UNK         0.3081 
     90 H90        23.9157   25.1403    4.1358 H         1 UNK         0.0719 
     91 H91        23.1414   27.4442    3.5656 H         1 UNK         0.0809 
     92 H92        23.7156   27.2495    1.9146 H         1 UNK         0.0809 
     93 H93        22.3823   26.2629    2.5138 H         1 UNK         0.0809 
     94 H94        24.1521   24.9133    1.2759 H         1 UNK         0.2990 
     95 H95        25.8683   21.8473    1.1896 H         1 UNK         0.0690 
     96 H96        23.8361   21.0398    0.0047 H         1 UNK         0.0788 
     97 H97        22.8767   22.3265    0.7344 H         1 UNK         0.0788 
     98 H98        23.5868   21.0775    1.7426 H         1 UNK         0.0788 
     99 H99        26.2830   23.0728   -0.5762 H         1 UNK         0.2993 
    100 H100       24.9979   24.3371   -2.9234 H         1 UNK         0.0949 
    101 H101       25.0383   26.9612   -1.3426 H         1 UNK         0.0767 
    102 H102       25.3368   26.8443   -3.0776 H         1 UNK         0.0767 
    103 H103       23.7712   26.4005   -2.4209 H         1 UNK         0.0767 
    104 H104       27.2198   24.3788   -2.8518 H         1 UNK         0.3013 
    105 H105       27.3691   27.3346    0.9970 H         1 UNK         0.3121 
    106 H106       27.5740   30.2309    1.4842 H         1 UNK         0.0774 
    107 H107       26.7129   28.6522   -0.9964 H         1 UNK         0.0815 
    108 H108       25.6208   29.2446    0.2563 H         1 UNK         0.0815 
    109 H109       26.5135   30.3801   -0.7429 H         1 UNK         0.0815 
    110 H110       30.0151   29.3385    1.8851 H         1 UNK         0.2987 
    111 H111       31.6745   29.1629   -0.5231 H         1 UNK         0.0949 
    112 H112       32.1012   27.7921    1.5668 H         1 UNK         0.0806 
    113 H113       33.4817   28.7934    1.1513 H         1 UNK         0.0806 
    114 H114       32.4120   29.2783    2.4590 H         1 UNK         0.0806 
    115 H115       33.5557   30.5510   -0.8108 H         1 UNK         0.3010 
    116 H116       33.1589   33.4142   -0.1533 H         1 UNK         0.0829 
    117 H117       35.2039   32.0181   -1.9617 H         1 UNK         0.0813 
    118 H118       34.9888   33.7547   -1.7867 H         1 UNK         0.0813 
    119 H119       33.7126   32.7877   -2.5047 H         1 UNK         0.0813 
    120 H120       33.4770   32.1159    2.1678 H         1 UNK         0.3038 
    121 H121       35.9475   33.0225    3.3009 H         1 UNK         0.0769 
    122 H122       36.7753   30.8340    2.3666 H         1 UNK         0.0811 
    123 H123       35.4219   29.9866    3.1108 H         1 UNK         0.0811 
    124 H124       36.6623   30.7263    4.1132 H         1 UNK         0.0811 
    125 H125       35.8710   32.5734    5.6826 H         1 UNK         0.3204 
    126 H126       33.2053   33.0348    6.7384 H         1 UNK         0.0748 
    127 H127       35.9260   32.8554    8.1346 H         1 UNK         0.0771 
    128 H128       35.1739   34.3305    7.5256 H         1 UNK         0.0771 
    129 H129       34.4349   33.4522    8.8515 H         1 UNK         0.0771 
    130 H130       32.9088   30.6466    5.6858 H         1 UNK         0.2980 
    131 H131       33.3827   28.4319    7.4887 H         1 UNK         0.0545 
    132 H132       30.3368   28.0304    9.3001 H         1 UNK         0.3459 
    133 H133       31.7646   27.2173    8.7169 H         1 UNK         0.3459 
    134 H134       31.5639   28.6908    5.0346 H         1 UNK         0.0616 
    135 H135       31.7982   27.2103    5.9252 H         1 UNK         0.0616 
    136 H136       34.8972   25.6947    4.4732 H         1 UNK         0.0634 
    137 H137       33.8089   25.6897    5.8370 H         1 UNK         0.0634 
@<TRIPOS>BOND
     1    1    2 1    
     2    1   72 1    
     3    1   73 1    
     4    1   74 1    
     5    2    3 2    
     6    2    4 am   BACKBONE|DICT|INTERRES
     7    4    5 1    
     8    4   75 1    
     9    5    6 1    
    10    5   35 1    
    11    5   76 1    
    12    6    7 1    
    13    6   77 1    
    14    6   78 1    
    15    7    8 1    
    16    8    9 1    
    17    8   79 1    
    18    8   80 1    
    19    9   10 ar   
    20    9   14 ar   
    21   10   11 ar   
    22   10   81 1    
    23   11   12 ar   
    24   11   71 1    
    25   12   13 ar   
    26   12   82 1    
    27   13   14 ar   
    28   13   15 1    
    29   14   83 1    
    30   15   16 1    
    31   15   84 1    
    32   15   85 1    
    33   16   17 1    
    34   17   18 1    
    35   17   86 1    
    36   17   87 1    
    37   18   19 1    
    38   18   37 1    
    39   18   88 1    
    40   19   20 am   BACKBONE|DICT|INTERRES
    41   19   89 1    
    42   20   21 2    
    43   20   22 1    
    44   22   23 1    
    45   22   24 1    
    46   22   90 1    
    47   23   91 1    
    48   23   92 1    
    49   23   93 1    
    50   24   25 am   BACKBONE|DICT|INTERRES
    51   24   94 1    
    52   25   26 2    
    53   25   27 1    
    54   27   28 1    
    55   27   29 1    
    56   27   95 1    
    57   28   96 1    
    58   28   97 1    
    59   28   98 1    
    60   29   30 am   BACKBONE|DICT|INTERRES
    61   29   99 1    
    62   30   31 2    
    63   30   32 1    
    64   32   33 1    
    65   32   34 1    
    66   32  100 1    
    67   33  101 1    
    68   33  102 1    
    69   33  103 1    
    70   34   35 am   BACKBONE|DICT|INTERRES
    71   34  104 1    
    72   35   36 2    
    73   37   38 2    
    74   37   39 am   BACKBONE|DICT|INTERRES
    75   39   40 1    
    76   39  105 1    
    77   40   41 1    
    78   40   42 1    
    79   40  106 1    
    80   41  107 1    
    81   41  108 1    
    82   41  109 1    
    83   42   43 2    
    84   42   44 am   BACKBONE|DICT|INTERRES
    85   44   45 1    
    86   44  110 1    
    87   45   46 1    
    88   45   47 1    
    89   45  111 1    
    90   46  112 1    
    91   46  113 1    
    92   46  114 1    
    93   47   48 2    
    94   47   49 am   BACKBONE|DICT|INTERRES
    95   49   50 1    
    96   49  115 1    
    97   50   51 1    
    98   50   52 1    
    99   50  116 1    
   100   51  117 1    
   101   51  118 1    
   102   51  119 1    
   103   52   53 2    
   104   52   54 am   BACKBONE|DICT|INTERRES
   105   54   55 1    
   106   54  120 1    
   107   55   56 1    
   108   55   57 1    
   109   55  121 1    
   110   56  122 1    
   111   56  123 1    
   112   56  124 1    
   113   57   58 2    
   114   57   59 am   BACKBONE|DICT|INTERRES
   115   59   60 1    
   116   59  125 1    
   117   60   61 1    
   118   60   62 1    
   119   60  126 1    
   120   61  127 1    
   121   61  128 1    
   122   61  129 1    
   123   62   63 2    
   124   62   64 am   BACKBONE|DICT|INTERRES
   125   64   65 1    
   126   64  130 1    
   127   65   66 1    
   128   65   69 1    
   129   65  131 1    
   130   66   67 am   BACKBONE|DICT|INTERRES
   131   66   68 2    
   132   67  132 1    
   133   67  133 1    
   134   69   70 1    
   135   69  134 1    
   136   69  135 1    
   137   70   71 1    
   138   71  136 1    
   139   71  137 1    
@<TRIPOS>SUBSTRUCTURE
     1 UNK         1 GROUP             0       ****    0 ROOT    
