@<TRIPOS>MOLECULE
3R136
137   139    1
SMALL
USER_CHARGES


@<TRIPOS>ATOM
      1 CA         27.4809   20.1404    5.5793 C.3       0 UNK        -0.1979 
      2 C          27.6473   21.1732    4.4739 C.2       0 UNK         0.4864 
      3 O          27.1872   22.3058    4.6284 O.2       0 UNK        -0.5359 
      4 N          28.3016   20.7839    3.3694 N.am      1 UNK        -0.4318 
      5 CA         28.5654   21.5968    2.1718 C.3       1 UNK         0.0824 
      6 C6         29.4975   22.8191    2.4362 C.3       12 UNK        -0.0944 
      7 S7         31.0435   22.4060    3.3114 S.3       12 UNK        -0.2672 
      8 C8         32.1700   22.0158    1.9366 C.3       12 UNK         0.0333 
      9 C9         32.5394   23.2357    1.1015 C.ar      12 UNK        -0.0807 
     10 C10        33.3725   24.2272    1.6308 C.ar      12 UNK        -0.0894 
     11 C11        33.7799   25.3065    0.8409 C.ar      12 UNK        -0.0804 
     12 C12        33.3441   25.3911   -0.4851 C.ar      12 UNK        -0.0824 
     13 C13        32.5062   24.4102   -1.0268 C.ar      12 UNK        -0.0762 
     14 C14        32.1025   23.3388   -0.2236 C.ar      12 UNK        -0.0782 
     15 C15        32.1077   24.4469   -2.4999 C.3       12 UNK         0.0230 
     16 S16        31.5144   26.0739   -3.0676 S.3       12 UNK        -0.2608 
     17 C17        29.8492   26.1373   -2.3325 C.3       12 UNK        -0.0989 
     18 CA         29.4519   27.5811   -1.9316 C.3       5 UNK         0.0716 
     19 N          27.9993   27.7371   -1.8734 N.am      5 UNK        -0.4135 
     20 C          27.3124   28.7699   -2.3805 C.2       4 UNK         0.5031 
     21 O          27.8254   29.6999   -3.0043 O.2       4 UNK        -0.5229 
     22 CA         25.7855   28.7687   -2.1715 C.3       4 UNK         0.0329 
     23 CB         25.0759   28.1985   -3.4105 C.3       4 UNK        -0.2001 
     24 N          25.3645   28.0150   -0.9885 N.am      4 UNK        -0.4303 
     25 C          25.5896   28.3972    0.2762 C.2       3 UNK         0.5044 
     26 O          26.0892   29.4794    0.5831 O.2       3 UNK        -0.5152 
     27 CA         25.2127   27.3979    1.3862 C.3       3 UNK         0.0319 
     28 CB         23.8578   27.7745    2.0068 C.3       3 UNK        -0.2001 
     29 N          25.1778   25.9876    0.9699 N.am      3 UNK        -0.4354 
     30 C          26.2265   25.2974    0.5028 C.2       2 UNK         0.4964 
     31 O          27.3252   25.7982    0.2482 O.2       2 UNK        -0.5047 
     32 CA         26.0343   23.8000    0.2624 C.3       2 UNK         0.0288 
     33 CB         25.9162   23.4912   -1.2398 C.3       2 UNK        -0.2113 
     34 N          27.2156   23.1524    0.8167 N.am      2 UNK        -0.4145 
     35 C          27.2452   21.9766    1.4529 C.2       1 UNK         0.5006 
     36 O          26.2855   21.2005    1.4827 O.2       1 UNK        -0.5103 
     37 C          30.0623   28.0021   -0.5839 C.2       5 UNK         0.5055 
     38 O          30.9133   28.8926   -0.5446 O.2       5 UNK        -0.5220 
     39 N          29.5851   27.3810    0.5021 N.am      6 UNK        -0.4450 
     40 CA         29.9947   27.6492    1.8745 C.3       6 UNK         0.0367 
     41 CB         29.8385   26.3655    2.7064 C.3       6 UNK        -0.1929 
     42 C          29.1924   28.8254    2.4420 C.2       6 UNK         0.5070 
     43 O          28.2866   28.6273    3.2547 O.2       6 UNK        -0.5237 
     44 N          29.5321   30.0360    1.9849 N.am      7 UNK        -0.4739 
     45 CA         28.9194   31.3049    2.3832 C.3       7 UNK         0.0276 
     46 CB         29.2729   32.3764    1.3355 C.3       7 UNK        -0.1927 
     47 C          29.3164   31.7185    3.8150 C.2       7 UNK         0.5013 
     48 O          30.0312   32.7068    4.0001 O.2       7 UNK        -0.5193 
     49 N          28.8593   30.9309    4.7987 N.am      8 UNK        -0.4253 
     50 CA         29.0658   31.0805    6.2418 C.3       8 UNK         0.0242 
     51 CB         28.2143   32.2528    6.7817 C.3       8 UNK        -0.2000 
     52 C          30.5627   31.1702    6.5909 C.2       8 UNK         0.4948 
     53 O          31.2937   30.2057    6.3548 O.2       8 UNK        -0.5275 
     54 N          31.0028   32.3312    7.0956 N.am      9 UNK        -0.4246 
     55 CA         32.3806   32.6474    7.4868 C.3       9 UNK         0.0261 
     56 CB         32.4156   34.0667    8.0778 C.3       9 UNK        -0.1959 
     57 C          33.4353   32.5028    6.3713 C.2       9 UNK         0.5033 
     58 O          34.6240   32.4435    6.6894 O.2       9 UNK        -0.5390 
     59 N          33.0056   32.4288    5.1020 N.am      10 UNK        -0.4215 
     60 CA         33.8627   32.1207    3.9552 C.3       10 UNK         0.0240 
     61 CB         33.0607   32.2918    2.6554 C.3       10 UNK        -0.1982 
     62 C          34.4821   30.7107    4.0100 C.2       10 UNK         0.4970 
     63 O          35.5989   30.5420    3.5179 O.2       10 UNK        -0.4916 
     64 N          33.7614   29.7403    4.5921 N.am      11 UNK        -0.4279 
     65 CA         34.1850   28.3329    4.7059 C.3       11 UNK         0.1003 
     66 C          34.0653   27.7661    6.1469 C.2       11 UNK         0.5709 
     67 N          33.2756   28.3464    7.0421 N.am      11 UNK        -0.7358 
     68 O          34.7258   26.7813    6.4690 O.2       11 UNK        -0.4999 
     69 C69        33.4498   27.4197    3.6877 C.3       12 UNK        -0.0954 
     70 S70        33.8504   27.8418    1.9567 S.3       12 UNK        -0.2268 
     71 C71        34.7337   26.3574    1.3912 C.3       12 UNK         0.0203 
     72 H72        26.4229   19.9668    5.7741 H         1 UNK         0.0888 
     73 H73        27.9389   19.1862    5.3195 H         1 UNK         0.0888 
     74 H74        27.9431   20.4984    6.4989 H         1 UNK         0.0888 
     75 H75        28.6271   19.8295    3.3115 H         1 UNK         0.3017 
     76 H76        29.0874   20.9364    1.4778 H         1 UNK         0.0873 
     77 H77        28.9773   23.5610    3.0440 H         1 UNK         0.0745 
     78 H78        29.7617   23.3204    1.5045 H         1 UNK         0.0745 
     79 H79        31.7212   21.2379    1.3171 H         1 UNK         0.0705 
     80 H80        33.0824   21.5827    2.3490 H         1 UNK         0.0705 
     81 H81        33.7203   24.1438    2.6514 H         1 UNK         0.1334 
     82 H82        33.6755   26.2147   -1.1029 H         1 UNK         0.1417 
     83 H83        31.4770   22.5619   -0.6422 H         1 UNK         0.1562 
     84 H84        31.3434   23.6992   -2.7183 H         1 UNK         0.0748 
     85 H85        32.9801   24.1731   -3.0946 H         1 UNK         0.0748 
     86 H86        29.7735   25.4456   -1.4908 H         1 UNK         0.0940 
     87 H87        29.1597   25.7576   -3.0885 H         1 UNK         0.0940 
     88 H88        29.8465   28.2597   -2.6914 H         1 UNK         0.0703 
     89 H89        27.5010   27.0462   -1.3247 H         1 UNK         0.3081 
     90 H90        25.4705   29.8066   -2.0436 H         1 UNK         0.0719 
     91 H91        25.3481   28.7575   -4.3071 H         1 UNK         0.0809 
     92 H92        25.3408   27.1548   -3.5848 H         1 UNK         0.0809 
     93 H93        23.9920   28.2591   -3.3107 H         1 UNK         0.0809 
     94 H94        24.9240   27.1203   -1.1455 H         1 UNK         0.2990 
     95 H95        25.9769   27.4863    2.1615 H         1 UNK         0.0690 
     96 H96        23.8613   28.8089    2.3539 H         1 UNK         0.0788 
     97 H97        23.6274   27.1482    2.8689 H         1 UNK         0.0788 
     98 H98        23.0428   27.6743    1.2888 H         1 UNK         0.0788 
     99 H99        24.3079   25.4987    1.1289 H         1 UNK         0.2993 
    100 H100       25.1377   23.4581    0.7848 H         1 UNK         0.0949 
    101 H101       25.8092   22.4204   -1.4142 H         1 UNK         0.0767 
    102 H102       25.0422   23.9796   -1.6724 H         1 UNK         0.0767 
    103 H103       26.7920   23.8331   -1.7935 H         1 UNK         0.0767 
    104 H104       28.0296   23.7519    0.8448 H         1 UNK         0.3013 
    105 H105       28.8158   26.7222    0.3934 H         1 UNK         0.3121 
    106 H106       31.0460   27.9315    1.8865 H         1 UNK         0.0774 
    107 H107       28.8156   25.9887    2.6789 H         1 UNK         0.0815 
    108 H108       30.5036   25.5830    2.3409 H         1 UNK         0.0815 
    109 H109       30.0922   26.5417    3.7522 H         1 UNK         0.0815 
    110 H110       30.2637   30.0824    1.2858 H         1 UNK         0.2987 
    111 H111       27.8340   31.1784    2.3720 H         1 UNK         0.0949 
    112 H112       28.8193   33.3352    1.5899 H         1 UNK         0.0806 
    113 H113       30.3491   32.5345    1.2612 H         1 UNK         0.0806 
    114 H114       28.9060   32.0981    0.3472 H         1 UNK         0.0806 
    115 H115       28.3838   30.0808    4.5041 H         1 UNK         0.3010 
    116 H116       28.7018   30.1626    6.7059 H         1 UNK         0.0829 
    117 H117       28.4828   33.2064    6.3254 H         1 UNK         0.0813 
    118 H118       27.1557   32.0854    6.5821 H         1 UNK         0.0813 
    119 H119       28.3182   32.3546    7.8629 H         1 UNK         0.0813 
    120 H120       30.3268   33.0726    7.2106 H         1 UNK         0.3038 
    121 H121       32.6591   31.9430    8.2732 H         1 UNK         0.0769 
    122 H122       32.1157   34.8160    7.3439 H         1 UNK         0.0811 
    123 H123       33.4201   34.3261    8.4157 H         1 UNK         0.0811 
    124 H124       31.7551   34.1558    8.9405 H         1 UNK         0.0811 
    125 H125       32.0110   32.5130    4.9196 H         1 UNK         0.3204 
    126 H126       34.6814   32.8434    3.9505 H         1 UNK         0.0748 
    127 H127       33.6972   32.1429    1.7820 H         1 UNK         0.0771 
    128 H128       32.2467   31.5691    2.5897 H         1 UNK         0.0771 
    129 H129       32.6312   33.2909    2.5786 H         1 UNK         0.0771 
    130 H130       32.8702   29.9714    5.0153 H         1 UNK         0.2980 
    131 H131       35.2518   28.2681    4.4834 H         1 UNK         0.0545 
    132 H132       33.2342   27.9586    7.9706 H         1 UNK         0.3459 
    133 H133       32.6429   29.1013    6.7896 H         1 UNK         0.3459 
    134 H134       32.3718   27.5031    3.8254 H         1 UNK         0.0616 
    135 H135       33.6926   26.3699    3.8603 H         1 UNK         0.0616 
    136 H136       35.4353   26.6520    0.6095 H         1 UNK         0.0634 
    137 H137       35.3416   25.9499    2.2005 H         1 UNK         0.0634 
@<TRIPOS>BOND
     1    1    2 1    
     2    1   72 1    
     3    1   73 1    
     4    1   74 1    
     5    2    3 2    
     6    2    4 am   BACKBONE|DICT|INTERRES
     7    4    5 1    
     8    4   75 1    
     9    5    6 1    
    10    5   35 1    
    11    5   76 1    
    12    6    7 1    
    13    6   77 1    
    14    6   78 1    
    15    7    8 1    
    16    8    9 1    
    17    8   79 1    
    18    8   80 1    
    19    9   10 ar   
    20    9   14 ar   
    21   10   11 ar   
    22   10   81 1    
    23   11   12 ar   
    24   11   71 1    
    25   12   13 ar   
    26   12   82 1    
    27   13   14 ar   
    28   13   15 1    
    29   14   83 1    
    30   15   16 1    
    31   15   84 1    
    32   15   85 1    
    33   16   17 1    
    34   17   18 1    
    35   17   86 1    
    36   17   87 1    
    37   18   19 1    
    38   18   37 1    
    39   18   88 1    
    40   19   20 am   BACKBONE|DICT|INTERRES
    41   19   89 1    
    42   20   21 2    
    43   20   22 1    
    44   22   23 1    
    45   22   24 1    
    46   22   90 1    
    47   23   91 1    
    48   23   92 1    
    49   23   93 1    
    50   24   25 am   BACKBONE|DICT|INTERRES
    51   24   94 1    
    52   25   26 2    
    53   25   27 1    
    54   27   28 1    
    55   27   29 1    
    56   27   95 1    
    57   28   96 1    
    58   28   97 1    
    59   28   98 1    
    60   29   30 am   BACKBONE|DICT|INTERRES
    61   29   99 1    
    62   30   31 2    
    63   30   32 1    
    64   32   33 1    
    65   32   34 1    
    66   32  100 1    
    67   33  101 1    
    68   33  102 1    
    69   33  103 1    
    70   34   35 am   BACKBONE|DICT|INTERRES
    71   34  104 1    
    72   35   36 2    
    73   37   38 2    
    74   37   39 am   BACKBONE|DICT|INTERRES
    75   39   40 1    
    76   39  105 1    
    77   40   41 1    
    78   40   42 1    
    79   40  106 1    
    80   41  107 1    
    81   41  108 1    
    82   41  109 1    
    83   42   43 2    
    84   42   44 am   BACKBONE|DICT|INTERRES
    85   44   45 1    
    86   44  110 1    
    87   45   46 1    
    88   45   47 1    
    89   45  111 1    
    90   46  112 1    
    91   46  113 1    
    92   46  114 1    
    93   47   48 2    
    94   47   49 am   BACKBONE|DICT|INTERRES
    95   49   50 1    
    96   49  115 1    
    97   50   51 1    
    98   50   52 1    
    99   50  116 1    
   100   51  117 1    
   101   51  118 1    
   102   51  119 1    
   103   52   53 2    
   104   52   54 am   BACKBONE|DICT|INTERRES
   105   54   55 1    
   106   54  120 1    
   107   55   56 1    
   108   55   57 1    
   109   55  121 1    
   110   56  122 1    
   111   56  123 1    
   112   56  124 1    
   113   57   58 2    
   114   57   59 am   BACKBONE|DICT|INTERRES
   115   59   60 1    
   116   59  125 1    
   117   60   61 1    
   118   60   62 1    
   119   60  126 1    
   120   61  127 1    
   121   61  128 1    
   122   61  129 1    
   123   62   63 2    
   124   62   64 am   BACKBONE|DICT|INTERRES
   125   64   65 1    
   126   64  130 1    
   127   65   66 1    
   128   65   69 1    
   129   65  131 1    
   130   66   67 am   BACKBONE|DICT|INTERRES
   131   66   68 2    
   132   67  132 1    
   133   67  133 1    
   134   69   70 1    
   135   69  134 1    
   136   69  135 1    
   137   70   71 1    
   138   71  136 1    
   139   71  137 1    
@<TRIPOS>SUBSTRUCTURE
     1 UNK         1 GROUP             0       ****    0 ROOT    
