@<TRIPOS>MOLECULE
3R136
137   139    1
SMALL
USER_CHARGES


@<TRIPOS>ATOM
      1 CA         25.9836   21.2875   -2.4168 C.3       0 UNK        -0.1979 
      2 C          26.8607   22.3717   -1.8101 C.2       0 UNK         0.4864 
      3 O          26.5756   23.5568   -1.9836 O.2       0 UNK        -0.5359 
      4 N          27.9156   21.9796   -1.0796 N.am      1 UNK        -0.4318 
      5 CA         28.9037   22.8740   -0.4544 C.3       1 UNK         0.0824 
      6 C6         30.0764   22.0706    0.1635 C.3       12 UNK        -0.0944 
      7 S7         31.6656   22.9598    0.0691 S.3       12 UNK        -0.2672 
      8 C8         32.7093   21.9103    1.1322 C.3       12 UNK         0.0333 
      9 C9         33.0048   22.5682    2.4735 C.ar      12 UNK        -0.0807 
     10 C10        34.3231   22.8723    2.8300 C.ar      12 UNK        -0.0894 
     11 C11        34.6070   23.4695    4.0621 C.ar      12 UNK        -0.0804 
     12 C12        33.5612   23.7593    4.9421 C.ar      12 UNK        -0.0824 
     13 C13        32.2384   23.4914    4.5834 C.ar      12 UNK        -0.0762 
     14 C14        31.9666   22.8750    3.3591 C.ar      12 UNK        -0.0782 
     15 C15        31.1073   23.9114    5.5063 C.3       12 UNK         0.0230 
     16 S16        30.8275   25.7079    5.4108 S.3       12 UNK        -0.2608 
     17 C17        29.9868   25.8589    3.7964 C.3       12 UNK        -0.0989 
     18 CA         29.8753   27.3263    3.3188 C.3       5 UNK         0.0716 
     19 N          29.4618   27.4051    1.9163 N.am      5 UNK        -0.4135 
     20 C          29.3546   28.5249    1.1848 C.2       4 UNK         0.5031 
     21 O          29.5483   29.6604    1.6210 O.2       4 UNK        -0.5229 
     22 CA         28.9640   28.3555   -0.2888 C.3       4 UNK         0.0329 
     23 CB         30.1300   27.7600   -1.0955 C.3       4 UNK        -0.2001 
     24 N          27.7880   27.4974   -0.4195 N.am      4 UNK        -0.4303 
     25 C          26.5565   27.9243   -0.7345 C.2       3 UNK         0.5044 
     26 O          26.2876   29.0916   -1.0192 O.2       3 UNK        -0.5152 
     27 CA         25.4212   26.8816   -0.7424 C.3       3 UNK         0.0319 
     28 CB         25.0616   26.4917   -2.1849 C.3       3 UNK        -0.2001 
     29 N          25.7443   25.6739    0.0231 N.am      3 UNK        -0.4354 
     30 C          25.7857   25.6275    1.3649 C.2       2 UNK         0.4964 
     31 O          25.4350   26.5635    2.0822 O.2       2 UNK        -0.5047 
     32 CA         26.3239   24.3443    2.0315 C.3       2 UNK         0.0288 
     33 CB         25.1647   23.5033    2.5906 C.3       2 UNK        -0.2113 
     34 N          27.1449   23.4995    1.1579 N.am      2 UNK        -0.4145 
     35 C          28.2905   23.8651    0.5620 C.2       1 UNK         0.5006 
     36 O          28.8224   24.9617    0.7411 O.2       1 UNK        -0.5103 
     37 C          28.9525   28.1635    4.2250 C.2       5 UNK         0.5055 
     38 O          27.7732   27.8355    4.3657 O.2       5 UNK        -0.5220 
     39 N          29.5072   29.2496    4.7787 N.am      6 UNK        -0.4450 
     40 CA         28.9010   30.2740    5.6401 C.3       6 UNK         0.0367 
     41 CB         28.2927   29.6619    6.9166 C.3       6 UNK        -0.1929 
     42 C          27.8932   31.1882    4.9201 C.2       6 UNK         0.5070 
     43 O          27.8091   32.3677    5.2618 O.2       6 UNK        -0.5237 
     44 N          27.1663   30.6503    3.9334 N.am      7 UNK        -0.4739 
     45 CA         26.2329   31.3688    3.0666 C.3       7 UNK         0.0276 
     46 CB         25.4616   30.3521    2.2119 C.3       7 UNK        -0.1927 
     47 C          26.9216   32.4198    2.1785 C.2       7 UNK         0.5013 
     48 O          26.3564   33.4967    1.9818 O.2       7 UNK        -0.5193 
     49 N          28.1233   32.0995    1.6805 N.am      8 UNK        -0.4253 
     50 CA         28.9831   33.0059    0.9221 C.3       8 UNK         0.0242 
     51 CB         29.3465   32.3752   -0.4335 C.3       8 UNK        -0.2000 
     52 C          30.2468   33.3425    1.7242 C.2       8 UNK         0.4948 
     53 O          30.5776   34.5232    1.8438 O.2       8 UNK        -0.5275 
     54 N          30.9303   32.3216    2.2607 N.am      9 UNK        -0.4246 
     55 CA         32.1862   32.4532    3.0024 C.3       9 UNK         0.0261 
     56 CB         33.3427   32.7641    2.0288 C.3       9 UNK        -0.1959 
     57 C          32.4709   31.1549    3.7637 C.2       9 UNK         0.5033 
     58 O          31.8200   30.1393    3.5085 O.2       9 UNK        -0.5390 
     59 N          33.4667   31.1769    4.6587 N.am      10 UNK        -0.4215 
     60 CA         34.0023   29.9762    5.3081 C.3       10 UNK         0.0240 
     61 CB         35.0442   30.3792    6.3649 C.3       10 UNK        -0.1982 
     62 C          34.6101   29.0325    4.2545 C.2       10 UNK         0.4970 
     63 O          35.5515   29.4318    3.5658 O.2       10 UNK        -0.4916 
     64 N          34.0175   27.8399    4.1181 N.am      11 UNK        -0.4279 
     65 CA         34.2885   26.8596    3.0505 C.3       11 UNK         0.1003 
     66 C          33.8386   27.3183    1.6277 C.2       11 UNK         0.5709 
     67 N          33.0097   28.3473    1.4853 N.am      11 UNK        -0.7358 
     68 O          34.2269   26.7184    0.6285 O.2       11 UNK        -0.4999 
     69 C69        35.7455   26.3004    3.0664 C.3       12 UNK        -0.0954 
     70 S70        36.2472   25.6264    4.6882 S.3       12 UNK        -0.2268 
     71 C71        36.0385   23.8332    4.4315 C.3       12 UNK         0.0203 
     72 H72        25.9628   21.3877   -3.5016 H         1 UNK         0.0888 
     73 H73        26.3437   20.2877   -2.1751 H         1 UNK         0.0888 
     74 H74        24.9631   21.3802   -2.0465 H         1 UNK         0.0888 
     75 H75        28.0892   20.9904   -0.9678 H         1 UNK         0.3017 
     76 H76        29.2974   23.4836   -1.2711 H         1 UNK         0.0873 
     77 H77        29.8634   21.7779    1.1933 H         1 UNK         0.0745 
     78 H78        30.2227   21.1369   -0.3823 H         1 UNK         0.0745 
     79 H79        32.2358   20.9419    1.2997 H         1 UNK         0.0705 
     80 H80        33.6365   21.7025    0.5960 H         1 UNK         0.0705 
     81 H81        35.1297   22.6503    2.1445 H         1 UNK         0.1334 
     82 H82        33.7739   24.2408    5.8871 H         1 UNK         0.1417 
     83 H83        30.9441   22.6619    3.0821 H         1 UNK         0.1562 
     84 H84        31.3586   23.6452    6.5341 H         1 UNK         0.0748 
     85 H85        30.1843   23.3805    5.2677 H         1 UNK         0.0748 
     86 H86        29.0039   25.3895    3.8583 H         1 UNK         0.0940 
     87 H87        30.5529   25.2852    3.0613 H         1 UNK         0.0940 
     88 H88        30.8789   27.7504    3.3580 H         1 UNK         0.0703 
     89 H89        29.2648   26.5129    1.4669 H         1 UNK         0.3081 
     90 H90        28.7539   29.3481   -0.6916 H         1 UNK         0.0719 
     91 H91        30.4102   26.7665   -0.7420 H         1 UNK         0.0809 
     92 H92        31.0149   28.3935   -1.0254 H         1 UNK         0.0809 
     93 H93        29.8755   27.6774   -2.1521 H         1 UNK         0.0809 
     94 H94        27.9151   26.5217   -0.1761 H         1 UNK         0.2990 
     95 H95        24.5438   27.3495   -0.2905 H         1 UNK         0.0690 
     96 H96        24.2502   25.7641   -2.2108 H         1 UNK         0.0788 
     97 H97        25.9149   26.0622   -2.7110 H         1 UNK         0.0788 
     98 H98        24.7347   27.3632   -2.7537 H         1 UNK         0.0788 
     99 H99        26.0320   24.8629   -0.5172 H         1 UNK         0.2993 
    100 H100       26.9503   24.6621    2.8668 H         1 UNK         0.0949 
    101 H101       25.5316   22.6430    3.1510 H         1 UNK         0.0767 
    102 H102       24.5486   24.0916    3.2724 H         1 UNK         0.0767 
    103 H103       24.5131   23.1364    1.7965 H         1 UNK         0.0767 
    104 H104       26.7741   22.5862    0.9396 H         1 UNK         0.3013 
    105 H105       30.4423   29.4868    4.4457 H         1 UNK         0.3121 
    106 H106       29.7291   30.9146    5.9478 H         1 UNK         0.0774 
    107 H107       27.9616   30.4442    7.6006 H         1 UNK         0.0815 
    108 H108       27.4259   29.0377    6.6983 H         1 UNK         0.0815 
    109 H109       29.0213   29.0510    7.4495 H         1 UNK         0.0815 
    110 H110       27.2726   29.6530    3.7754 H         1 UNK         0.2987 
    111 H111       25.5199   31.8944    3.7054 H         1 UNK         0.0949 
    112 H112       26.1381   29.7441    1.6115 H         1 UNK         0.0806 
    113 H113       24.8721   29.6764    2.8319 H         1 UNK         0.0806 
    114 H114       24.7738   30.8512    1.5279 H         1 UNK         0.0806 
    115 H115       28.5100   31.1792    1.8783 H         1 UNK         0.3010 
    116 H116       28.4614   33.9441    0.7215 H         1 UNK         0.0829 
    117 H117       28.4530   32.1122   -1.0000 H         1 UNK         0.0813 
    118 H118       29.9240   33.0725   -1.0416 H         1 UNK         0.0813 
    119 H119       29.9478   31.4732   -0.3191 H         1 UNK         0.0813 
    120 H120       30.6002   31.3645    2.1526 H         1 UNK         0.3038 
    121 H121       32.0857   33.2598    3.7315 H         1 UNK         0.0769 
    122 H122       33.1829   33.7032    1.4993 H         1 UNK         0.0811 
    123 H123       33.4577   31.9765    1.2827 H         1 UNK         0.0811 
    124 H124       34.2943   32.8558    2.5535 H         1 UNK         0.0811 
    125 H125       33.9800   32.0351    4.7988 H         1 UNK         0.3204 
    126 H126       33.1794   29.4688    5.8166 H         1 UNK         0.0748 
    127 H127       34.6045   31.0143    7.1342 H         1 UNK         0.0771 
    128 H128       35.4503   29.4987    6.8649 H         1 UNK         0.0771 
    129 H129       35.8833   30.9181    5.9226 H         1 UNK         0.0771 
    130 H130       33.2447   27.6092    4.7246 H         1 UNK         0.2980 
    131 H131       33.6228   26.0255    3.2683 H         1 UNK         0.0545 
    132 H132       32.7421   28.6235    0.5563 H         1 UNK         0.3459 
    133 H133       32.6620   28.8669    2.2839 H         1 UNK         0.3459 
    134 H134       35.8621   25.5158    2.3171 H         1 UNK         0.0616 
    135 H135       36.4574   27.0788    2.7894 H         1 UNK         0.0616 
    136 H136       36.3146   23.3105    5.3481 H         1 UNK         0.0634 
    137 H137       36.7385   23.5015    3.6631 H         1 UNK         0.0634 
@<TRIPOS>BOND
     1    1    2 1    
     2    1   72 1    
     3    1   73 1    
     4    1   74 1    
     5    2    3 2    
     6    2    4 am   BACKBONE|DICT|INTERRES
     7    4    5 1    
     8    4   75 1    
     9    5    6 1    
    10    5   35 1    
    11    5   76 1    
    12    6    7 1    
    13    6   77 1    
    14    6   78 1    
    15    7    8 1    
    16    8    9 1    
    17    8   79 1    
    18    8   80 1    
    19    9   10 ar   
    20    9   14 ar   
    21   10   11 ar   
    22   10   81 1    
    23   11   12 ar   
    24   11   71 1    
    25   12   13 ar   
    26   12   82 1    
    27   13   14 ar   
    28   13   15 1    
    29   14   83 1    
    30   15   16 1    
    31   15   84 1    
    32   15   85 1    
    33   16   17 1    
    34   17   18 1    
    35   17   86 1    
    36   17   87 1    
    37   18   19 1    
    38   18   37 1    
    39   18   88 1    
    40   19   20 am   BACKBONE|DICT|INTERRES
    41   19   89 1    
    42   20   21 2    
    43   20   22 1    
    44   22   23 1    
    45   22   24 1    
    46   22   90 1    
    47   23   91 1    
    48   23   92 1    
    49   23   93 1    
    50   24   25 am   BACKBONE|DICT|INTERRES
    51   24   94 1    
    52   25   26 2    
    53   25   27 1    
    54   27   28 1    
    55   27   29 1    
    56   27   95 1    
    57   28   96 1    
    58   28   97 1    
    59   28   98 1    
    60   29   30 am   BACKBONE|DICT|INTERRES
    61   29   99 1    
    62   30   31 2    
    63   30   32 1    
    64   32   33 1    
    65   32   34 1    
    66   32  100 1    
    67   33  101 1    
    68   33  102 1    
    69   33  103 1    
    70   34   35 am   BACKBONE|DICT|INTERRES
    71   34  104 1    
    72   35   36 2    
    73   37   38 2    
    74   37   39 am   BACKBONE|DICT|INTERRES
    75   39   40 1    
    76   39  105 1    
    77   40   41 1    
    78   40   42 1    
    79   40  106 1    
    80   41  107 1    
    81   41  108 1    
    82   41  109 1    
    83   42   43 2    
    84   42   44 am   BACKBONE|DICT|INTERRES
    85   44   45 1    
    86   44  110 1    
    87   45   46 1    
    88   45   47 1    
    89   45  111 1    
    90   46  112 1    
    91   46  113 1    
    92   46  114 1    
    93   47   48 2    
    94   47   49 am   BACKBONE|DICT|INTERRES
    95   49   50 1    
    96   49  115 1    
    97   50   51 1    
    98   50   52 1    
    99   50  116 1    
   100   51  117 1    
   101   51  118 1    
   102   51  119 1    
   103   52   53 2    
   104   52   54 am   BACKBONE|DICT|INTERRES
   105   54   55 1    
   106   54  120 1    
   107   55   56 1    
   108   55   57 1    
   109   55  121 1    
   110   56  122 1    
   111   56  123 1    
   112   56  124 1    
   113   57   58 2    
   114   57   59 am   BACKBONE|DICT|INTERRES
   115   59   60 1    
   116   59  125 1    
   117   60   61 1    
   118   60   62 1    
   119   60  126 1    
   120   61  127 1    
   121   61  128 1    
   122   61  129 1    
   123   62   63 2    
   124   62   64 am   BACKBONE|DICT|INTERRES
   125   64   65 1    
   126   64  130 1    
   127   65   66 1    
   128   65   69 1    
   129   65  131 1    
   130   66   67 am   BACKBONE|DICT|INTERRES
   131   66   68 2    
   132   67  132 1    
   133   67  133 1    
   134   69   70 1    
   135   69  134 1    
   136   69  135 1    
   137   70   71 1    
   138   71  136 1    
   139   71  137 1    
@<TRIPOS>SUBSTRUCTURE
     1 UNK         1 GROUP             0       ****    0 ROOT    
