@<TRIPOS>MOLECULE
3R136
137   139    1
SMALL
USER_CHARGES


@<TRIPOS>ATOM
      1 CA         25.5559   26.4689    5.6930 C.3       0 UNK        -0.1979 
      2 C          26.2686   25.1941    5.2673 C.2       0 UNK         0.4864 
      3 O          26.8491   24.5061    6.1081 O.2       0 UNK        -0.5359 
      4 N          26.2223   24.8741    3.9713 N.am      1 UNK        -0.4318 
      5 CA         26.8532   23.7093    3.3525 C.3       1 UNK         0.0824 
      6 C6         28.4005   23.8262    3.2567 C.3       12 UNK        -0.0944 
      7 S7         28.9800   25.3367    2.4163 S.3       12 UNK        -0.2672 
      8 C8         30.5530   24.7649    1.7157 C.3       12 UNK         0.0333 
      9 C9         31.3178   25.9047    1.0589 C.ar      12 UNK        -0.0807 
     10 C10        32.6115   26.2226    1.4819 C.ar      12 UNK        -0.0894 
     11 C11        33.3303   27.2457    0.8567 C.ar      12 UNK        -0.0804 
     12 C12        32.7557   27.9403   -0.2119 C.ar      12 UNK        -0.0824 
     13 C13        31.4530   27.6490   -0.6248 C.ar      12 UNK        -0.0762 
     14 C14        30.7381   26.6369    0.0184 C.ar      12 UNK        -0.0782 
     15 C15        30.8005   28.4530   -1.7349 C.3       12 UNK         0.0230 
     16 S16        30.2258   30.0404   -1.0741 S.3       12 UNK        -0.2608 
     17 C17        28.8553   30.4627   -2.2036 C.3       12 UNK        -0.0989 
     18 CA         27.4262   29.9945   -1.7917 C.3       5 UNK         0.0716 
     19 N          27.0283   28.7620   -2.4839 N.am      5 UNK        -0.4135 
     20 C          25.7546   28.3714   -2.6342 C.2       4 UNK         0.5031 
     21 O          24.7899   29.0355   -2.2515 O.2       4 UNK        -0.5229 
     22 CA         25.4844   27.0275   -3.3338 C.3       4 UNK         0.0329 
     23 CB         25.1611   27.2646   -4.8187 C.3       4 UNK        -0.2001 
     24 N          26.5112   25.9812   -3.2340 N.am      4 UNK        -0.4303 
     25 C          27.1011   25.5224   -2.1214 C.2       3 UNK         0.5044 
     26 O          27.1098   26.1081   -1.0368 O.2       3 UNK        -0.5152 
     27 CA         27.7939   24.1557   -2.2528 C.3       3 UNK         0.0319 
     28 CB         29.3251   24.2723   -2.2817 C.3       3 UNK        -0.2001 
     29 N          27.3803   23.2661   -1.1661 N.am      3 UNK        -0.4354 
     30 C          26.1859   22.6592   -1.1122 C.2       2 UNK         0.4964 
     31 O          25.3460   22.7249   -2.0112 O.2       2 UNK        -0.5047 
     32 CA         25.8695   21.8210    0.1393 C.3       2 UNK         0.0288 
     33 CB         26.2680   20.3528   -0.0858 C.3       2 UNK        -0.2113 
     34 N          26.4957   22.3062    1.3736 N.am      2 UNK        -0.4145 
     35 C          26.1665   23.4461    1.9985 C.2       1 UNK         0.5006 
     36 O          25.3343   24.2501    1.5661 O.2       1 UNK        -0.5103 
     37 C          27.1691   29.9296   -0.2634 C.2       5 UNK         0.5055 
     38 O          26.9599   30.9780    0.3494 O.2       5 UNK        -0.5220 
     39 N          27.1757   28.7125    0.3100 N.am      6 UNK        -0.4450 
     40 CA         26.8867   28.3810    1.7109 C.3       6 UNK         0.0367 
     41 CB         25.3977   28.6401    2.0239 C.3       6 UNK        -0.1929 
     42 C          27.8321   29.0303    2.7473 C.2       6 UNK         0.5070 
     43 O          27.4229   29.2269    3.8928 O.2       6 UNK        -0.5237 
     44 N          29.0700   29.3603    2.3463 N.am      7 UNK        -0.4739 
     45 CA         30.0608   30.0320    3.1976 C.3       7 UNK         0.0276 
     46 CB         31.2191   30.5526    2.3353 C.3       7 UNK        -0.1927 
     47 C          30.5927   29.1558    4.3438 C.2       7 UNK         0.5013 
     48 O          30.8077   29.6708    5.4429 O.2       7 UNK        -0.5193 
     49 N          30.7803   27.8559    4.0727 N.am      8 UNK        -0.4253 
     50 CA         31.2040   26.8117    5.0114 C.3       8 UNK         0.0242 
     51 CB         30.0195   26.4299    5.9291 C.3       8 UNK        -0.2000 
     52 C          32.4916   27.1866    5.7741 C.2       8 UNK         0.4948 
     53 O          33.5539   27.2887    5.1599 O.2       8 UNK        -0.5275 
     54 N          32.3719   27.3982    7.0911 N.am      9 UNK        -0.4246 
     55 CA         33.4596   27.7527    8.0035 C.3       9 UNK         0.0261 
     56 CB         32.9787   27.5406    9.4494 C.3       9 UNK        -0.1959 
     57 C          34.0163   29.1785    7.8235 C.2       9 UNK         0.5033 
     58 O          35.0664   29.4705    8.3976 O.2       9 UNK        -0.5390 
     59 N          33.3321   30.0469    7.0608 N.am      10 UNK        -0.4215 
     60 CA         33.7778   31.4199    6.7920 C.3       10 UNK         0.0240 
     61 CB         32.6069   32.2430    6.2305 C.3       10 UNK        -0.1982 
     62 C          34.9935   31.5060    5.8491 C.2       10 UNK         0.4970 
     63 O          35.6619   32.5409    5.8365 O.2       10 UNK        -0.4916 
     64 N          35.2489   30.4470    5.0703 N.am      11 UNK        -0.4279 
     65 CA         36.3741   30.3427    4.1307 C.3       11 UNK         0.1003 
     66 C          37.7513   30.2994    4.8465 C.2       11 UNK         0.5709 
     67 N          38.7685   30.9293    4.2742 N.am      11 UNK        -0.7358 
     68 O          37.9163   29.6655    5.8871 O.2       11 UNK        -0.4999 
     69 C69        36.2102   29.1234    3.1898 C.3       12 UNK        -0.0954 
     70 S70        34.6594   29.2043    2.2420 S.3       12 UNK        -0.2268 
     71 C71        34.7155   27.6206    1.3553 C.3       12 UNK         0.0203 
     72 H72        25.0340   26.3149    6.6371 H         1 UNK         0.0888 
     73 H73        26.2790   27.2734    5.8275 H         1 UNK         0.0888 
     74 H74        24.8228   26.7874    4.9526 H         1 UNK         0.0888 
     75 H75        25.6888   25.4289    3.3130 H         1 UNK         0.3017 
     76 H76        26.6187   22.8452    3.9781 H         1 UNK         0.0873 
     77 H77        28.8238   22.9494    2.7644 H         1 UNK         0.0745 
     78 H78        28.8282   23.8247    4.2601 H         1 UNK         0.0745 
     79 H79        31.1470   24.3055    2.5072 H         1 UNK         0.0705 
     80 H80        30.3614   23.9847    0.9787 H         1 UNK         0.0705 
     81 H81        33.0597   25.6800    2.3034 H         1 UNK         0.1334 
     82 H82        33.3057   28.7388   -0.6913 H         1 UNK         0.1417 
     83 H83        29.7216   26.4248   -0.2819 H         1 UNK         0.1562 
     84 H84        29.9634   27.8985   -2.1608 H         1 UNK         0.0748 
     85 H85        31.5081   28.6270   -2.5469 H         1 UNK         0.0748 
     86 H86        29.1012   30.1384   -3.2163 H         1 UNK         0.0940 
     87 H87        28.8507   31.5527   -2.2592 H         1 UNK         0.0940 
     88 H88        26.7469   30.7672   -2.1603 H         1 UNK         0.0703 
     89 H89        27.7617   28.1597   -2.8245 H         1 UNK         0.3081 
     90 H90        24.5904   26.6155   -2.8613 H         1 UNK         0.0719 
     91 H91        24.8032   26.3540   -5.2998 H         1 UNK         0.0809 
     92 H92        26.0344   27.6161   -5.3696 H         1 UNK         0.0809 
     93 H93        24.3782   28.0156   -4.9362 H         1 UNK         0.0809 
     94 H94        26.6258   25.4247   -4.0692 H         1 UNK         0.2990 
     95 H95        27.4869   23.7057   -3.1999 H         1 UNK         0.0690 
     96 H96        29.7754   23.3575   -2.6673 H         1 UNK         0.0788 
     97 H97        29.7381   24.4389   -1.2905 H         1 UNK         0.0788 
     98 H98        29.6544   25.0897   -2.9248 H         1 UNK         0.0788 
     99 H99        27.9911   23.2027   -0.3660 H         1 UNK         0.2993 
    100 H100       24.7870   21.8591    0.2818 H         1 UNK         0.0949 
    101 H101       25.9559   19.7237    0.7482 H         1 UNK         0.0767 
    102 H102       25.7948   19.9531   -0.9841 H         1 UNK         0.0767 
    103 H103       27.3461   20.2405   -0.2083 H         1 UNK         0.0767 
    104 H104       27.1779   21.6955    1.7997 H         1 UNK         0.3013 
    105 H105       27.3157   27.9022   -0.2891 H         1 UNK         0.3121 
    106 H106       27.0422   27.3062    1.7934 H         1 UNK         0.0774 
    107 H107       25.1316   28.2685    3.0133 H         1 UNK         0.0815 
    108 H108       25.1606   29.7041    2.0027 H         1 UNK         0.0815 
    109 H109       24.7500   28.1365    1.3061 H         1 UNK         0.0815 
    110 H110       29.3292   29.1889    1.3844 H         1 UNK         0.2987 
    111 H111       29.5729   30.8944    3.6574 H         1 UNK         0.0949 
    112 H112       31.6892   29.7488    1.7692 H         1 UNK         0.0806 
    113 H113       30.8774   31.3076    1.6275 H         1 UNK         0.0806 
    114 H114       31.9942   31.0136    2.9488 H         1 UNK         0.0806 
    115 H115       30.5949   27.5442    3.1290 H         1 UNK         0.3010 
    116 H116       31.4527   25.9358    4.4121 H         1 UNK         0.0829 
    117 H117       29.1677   26.0942    5.3393 H         1 UNK         0.0813 
    118 H118       30.2808   25.6098    6.5993 H         1 UNK         0.0813 
    119 H119       29.6755   27.2686    6.5354 H         1 UNK         0.0813 
    120 H120       31.4502   27.3234    7.4968 H         1 UNK         0.3038 
    121 H121       34.2869   27.0647    7.8162 H         1 UNK         0.0769 
    122 H122       33.7770   27.7505   10.1628 H         1 UNK         0.0811 
    123 H123       32.6625   26.5108    9.6170 H         1 UNK         0.0811 
    124 H124       32.1419   28.1953    9.6963 H         1 UNK         0.0811 
    125 H125       32.4686   29.7495    6.6136 H         1 UNK         0.3204 
    126 H126       34.0745   31.8677    7.7429 H         1 UNK         0.0748 
    127 H127       32.8845   33.2926    6.1237 H         1 UNK         0.0771 
    128 H128       32.3001   31.8884    5.2466 H         1 UNK         0.0771 
    129 H129       31.7385   32.2027    6.8883 H         1 UNK         0.0771 
    130 H130       34.6611   29.6286    5.1457 H         1 UNK         0.2980 
    131 H131       36.3521   31.2430    3.5131 H         1 UNK         0.0545 
    132 H132       38.6482   31.4409    3.4137 H         1 UNK         0.3459 
    133 H133       39.6742   30.8985    4.7157 H         1 UNK         0.3459 
    134 H134       36.2219   28.1941    3.7632 H         1 UNK         0.0616 
    135 H135       37.0384   29.0674    2.4809 H         1 UNK         0.0616 
    136 H136       35.1040   26.8453    2.0176 H         1 UNK         0.0634 
    137 H137       35.4094   27.6959    0.5169 H         1 UNK         0.0634 
@<TRIPOS>BOND
     1    1    2 1    
     2    1   72 1    
     3    1   73 1    
     4    1   74 1    
     5    2    3 2    
     6    2    4 am   BACKBONE|DICT|INTERRES
     7    4    5 1    
     8    4   75 1    
     9    5    6 1    
    10    5   35 1    
    11    5   76 1    
    12    6    7 1    
    13    6   77 1    
    14    6   78 1    
    15    7    8 1    
    16    8    9 1    
    17    8   79 1    
    18    8   80 1    
    19    9   10 ar   
    20    9   14 ar   
    21   10   11 ar   
    22   10   81 1    
    23   11   12 ar   
    24   11   71 1    
    25   12   13 ar   
    26   12   82 1    
    27   13   14 ar   
    28   13   15 1    
    29   14   83 1    
    30   15   16 1    
    31   15   84 1    
    32   15   85 1    
    33   16   17 1    
    34   17   18 1    
    35   17   86 1    
    36   17   87 1    
    37   18   19 1    
    38   18   37 1    
    39   18   88 1    
    40   19   20 am   BACKBONE|DICT|INTERRES
    41   19   89 1    
    42   20   21 2    
    43   20   22 1    
    44   22   23 1    
    45   22   24 1    
    46   22   90 1    
    47   23   91 1    
    48   23   92 1    
    49   23   93 1    
    50   24   25 am   BACKBONE|DICT|INTERRES
    51   24   94 1    
    52   25   26 2    
    53   25   27 1    
    54   27   28 1    
    55   27   29 1    
    56   27   95 1    
    57   28   96 1    
    58   28   97 1    
    59   28   98 1    
    60   29   30 am   BACKBONE|DICT|INTERRES
    61   29   99 1    
    62   30   31 2    
    63   30   32 1    
    64   32   33 1    
    65   32   34 1    
    66   32  100 1    
    67   33  101 1    
    68   33  102 1    
    69   33  103 1    
    70   34   35 am   BACKBONE|DICT|INTERRES
    71   34  104 1    
    72   35   36 2    
    73   37   38 2    
    74   37   39 am   BACKBONE|DICT|INTERRES
    75   39   40 1    
    76   39  105 1    
    77   40   41 1    
    78   40   42 1    
    79   40  106 1    
    80   41  107 1    
    81   41  108 1    
    82   41  109 1    
    83   42   43 2    
    84   42   44 am   BACKBONE|DICT|INTERRES
    85   44   45 1    
    86   44  110 1    
    87   45   46 1    
    88   45   47 1    
    89   45  111 1    
    90   46  112 1    
    91   46  113 1    
    92   46  114 1    
    93   47   48 2    
    94   47   49 am   BACKBONE|DICT|INTERRES
    95   49   50 1    
    96   49  115 1    
    97   50   51 1    
    98   50   52 1    
    99   50  116 1    
   100   51  117 1    
   101   51  118 1    
   102   51  119 1    
   103   52   53 2    
   104   52   54 am   BACKBONE|DICT|INTERRES
   105   54   55 1    
   106   54  120 1    
   107   55   56 1    
   108   55   57 1    
   109   55  121 1    
   110   56  122 1    
   111   56  123 1    
   112   56  124 1    
   113   57   58 2    
   114   57   59 am   BACKBONE|DICT|INTERRES
   115   59   60 1    
   116   59  125 1    
   117   60   61 1    
   118   60   62 1    
   119   60  126 1    
   120   61  127 1    
   121   61  128 1    
   122   61  129 1    
   123   62   63 2    
   124   62   64 am   BACKBONE|DICT|INTERRES
   125   64   65 1    
   126   64  130 1    
   127   65   66 1    
   128   65   69 1    
   129   65  131 1    
   130   66   67 am   BACKBONE|DICT|INTERRES
   131   66   68 2    
   132   67  132 1    
   133   67  133 1    
   134   69   70 1    
   135   69  134 1    
   136   69  135 1    
   137   70   71 1    
   138   71  136 1    
   139   71  137 1    
@<TRIPOS>SUBSTRUCTURE
     1 UNK         1 GROUP             0       ****    0 ROOT    
