@<TRIPOS>MOLECULE
3R136
137   139    1
SMALL
USER_CHARGES


@<TRIPOS>ATOM
      1 CA         25.7412   28.1084    1.2208 C.3       0 UNK        -0.1979 
      2 C          25.9147   26.9373    2.1755 C.2       0 UNK         0.4864 
      3 O          25.0617   26.7390    3.0404 O.2       0 UNK        -0.5359 
      4 N          26.9980   26.1578    2.0315 N.am      1 UNK        -0.4318 
      5 CA         27.2555   24.9552    2.8405 C.3       1 UNK         0.0824 
      6 C6         28.7344   24.4887    2.7577 C.3       12 UNK        -0.0944 
      7 S7         29.2376   23.7825    1.1471 S.3       12 UNK        -0.2672 
      8 C8         30.8993   23.1513    1.5341 C.3       12 UNK         0.0333 
      9 C9         31.9180   24.2780    1.5365 C.ar      12 UNK        -0.0807 
     10 C10        32.4417   24.7694    2.7360 C.ar      12 UNK        -0.0894 
     11 C11        33.3467   25.8354    2.7263 C.ar      12 UNK        -0.0804 
     12 C12        33.7119   26.4164    1.5063 C.ar      12 UNK        -0.0824 
     13 C13        33.1967   25.9310    0.3010 C.ar      12 UNK        -0.0762 
     14 C14        32.3168   24.8457    0.3241 C.ar      12 UNK        -0.0782 
     15 C15        33.5757   26.5951   -1.0192 C.3       12 UNK         0.0230 
     16 S16        32.1270   27.0224   -2.0469 S.3       12 UNK        -0.2608 
     17 C17        31.1063   27.9478   -0.8515 C.3       12 UNK        -0.0989 
     18 CA         29.9245   28.7041   -1.5208 C.3       5 UNK         0.0716 
     19 N          29.0359   27.8212   -2.2867 N.am      5 UNK        -0.4135 
     20 C          28.2369   26.8621   -1.7992 C.2       4 UNK         0.5031 
     21 O          28.1085   26.5975   -0.6006 O.2       4 UNK        -0.5229 
     22 CA         27.5051   26.0068   -2.8482 C.3       4 UNK         0.0329 
     23 CB         28.3288   24.7461   -3.1578 C.3       4 UNK        -0.2001 
     24 N          26.1704   25.5986   -2.4092 N.am      4 UNK        -0.4303 
     25 C          25.1226   26.4118   -2.2290 C.2       3 UNK         0.5044 
     26 O          25.1475   27.6179   -2.4744 O.2       3 UNK        -0.5152 
     27 CA         23.8260   25.7914   -1.6667 C.3       3 UNK         0.0319 
     28 CB         22.9193   25.2664   -2.7973 C.3       3 UNK        -0.2001 
     29 N          24.0435   24.7811   -0.6177 N.am      3 UNK        -0.4354 
     30 C          24.5794   23.5552   -0.7257 C.2       2 UNK         0.4964 
     31 O          24.9226   23.0425   -1.7916 O.2       2 UNK        -0.5047 
     32 CA         24.9240   22.8716    0.6018 C.3       2 UNK         0.0288 
     33 CB         25.4577   21.4345    0.4373 C.3       2 UNK        -0.2113 
     34 N          25.9346   23.7213    1.2142 N.am      2 UNK        -0.4145 
     35 C          26.2505   23.8285    2.5078 C.2       1 UNK         0.5006 
     36 O          25.7691   23.1328    3.4036 O.2       1 UNK        -0.5103 
     37 C          29.1178   29.5947   -0.5474 C.2       5 UNK         0.5055 
     38 O          28.2186   30.3095   -0.9947 O.2       5 UNK        -0.5220 
     39 N          29.4468   29.5476    0.7477 N.am      6 UNK        -0.4450 
     40 CA         28.7486   30.2065    1.8436 C.3       6 UNK         0.0367 
     41 CB         29.4208   31.5511    2.1695 C.3       6 UNK        -0.1929 
     42 C          28.8012   29.2532    3.0407 C.2       6 UNK         0.5070 
     43 O          29.6854   28.3935    3.0936 O.2       6 UNK        -0.5237 
     44 N          27.8566   29.4149    3.9737 N.am      7 UNK        -0.4739 
     45 CA         27.7168   28.5903    5.1752 C.3       7 UNK         0.0276 
     46 CB         26.3475   28.8696    5.8192 C.3       7 UNK        -0.1927 
     47 C          28.8725   28.8392    6.1583 C.2       7 UNK         0.5013 
     48 O          28.7991   29.7691    6.9634 O.2       7 UNK        -0.5193 
     49 N          29.9432   28.0446    6.0232 N.am      8 UNK        -0.4253 
     50 CA         31.2069   28.0484    6.7768 C.3       8 UNK         0.0242 
     51 CB         30.9725   27.8021    8.2795 C.3       8 UNK        -0.2000 
     52 C          32.0951   29.2867    6.5546 C.2       8 UNK         0.4948 
     53 O          33.3162   29.1397    6.5280 O.2       8 UNK        -0.5275 
     54 N          31.4902   30.4676    6.3664 N.am      9 UNK        -0.4246 
     55 CA         32.1429   31.7687    6.1729 C.3       9 UNK         0.0261 
     56 CB         31.0651   32.8452    5.9689 C.3       9 UNK        -0.1959 
     57 C          33.1669   31.8139    5.0245 C.2       9 UNK         0.5033 
     58 O          34.1610   32.5332    5.1314 O.2       9 UNK        -0.5390 
     59 N          32.9391   31.0105    3.9757 N.am      10 UNK        -0.4215 
     60 CA         33.8538   30.8194    2.8454 C.3       10 UNK         0.0240 
     61 CB         33.1375   30.0066    1.7541 C.3       10 UNK        -0.1982 
     62 C          35.1977   30.1622    3.2237 C.2       10 UNK         0.4970 
     63 O          36.1594   30.2994    2.4671 O.2       10 UNK        -0.4916 
     64 N          35.2431   29.4763    4.3721 N.am      11 UNK        -0.4279 
     65 CA         36.4376   28.8536    4.9565 C.3       11 UNK         0.1003 
     66 C          37.0825   29.7276    6.0727 C.2       11 UNK         0.5709 
     67 N          36.6051   30.9387    6.3436 N.am      11 UNK        -0.7358 
     68 O          38.0572   29.3103    6.6941 O.2       11 UNK        -0.4999 
     69 C69        36.1288   27.4115    5.4478 C.3       12 UNK        -0.0954 
     70 S70        35.7255   26.2855    4.0711 S.3       12 UNK        -0.2268 
     71 C71        33.9068   26.3855    4.0303 C.3       12 UNK         0.0203 
     72 H72        25.5277   29.0186    1.7800 H         1 UNK         0.0888 
     73 H73        26.6302   28.2845    0.6195 H         1 UNK         0.0888 
     74 H74        24.9067   27.9232    0.5460 H         1 UNK         0.0888 
     75 H75        27.6389   26.3277    1.2579 H         1 UNK         0.3017 
     76 H76        27.0719   25.2308    3.8813 H         1 UNK         0.0873 
     77 H77        29.3961   25.3263    2.9862 H         1 UNK         0.0745 
     78 H78        28.9224   23.7417    3.5309 H         1 UNK         0.0745 
     79 H79        30.8866   22.6257    2.4901 H         1 UNK         0.0705 
     80 H80        31.1801   22.4130    0.7817 H         1 UNK         0.0705 
     81 H81        32.1351   24.3301    3.6754 H         1 UNK         0.1334 
     82 H82        34.4012   27.2497    1.5013 H         1 UNK         0.1417 
     83 H83        31.9040   24.4696   -0.6023 H         1 UNK         0.1562 
     84 H84        34.2234   25.9219   -1.5821 H         1 UNK         0.0748 
     85 H85        34.1532   27.5037   -0.8418 H         1 UNK         0.0748 
     86 H86        31.7661   28.6487   -0.3390 H         1 UNK         0.0940 
     87 H87        30.7388   27.2468   -0.0989 H         1 UNK         0.0940 
     88 H88        30.3555   29.3939   -2.2481 H         1 UNK         0.0703 
     89 H89        29.0571   27.9611   -3.2862 H         1 UNK         0.3081 
     90 H90        27.3926   26.5880   -3.7658 H         1 UNK         0.0719 
     91 H91        28.4556   24.1226   -2.2711 H         1 UNK         0.0809 
     92 H92        27.8553   24.1400   -3.9304 H         1 UNK         0.0809 
     93 H93        29.3259   25.0070   -3.5155 H         1 UNK         0.0809 
     94 H94        26.0302   24.6129   -2.2149 H         1 UNK         0.2990 
     95 H95        23.2874   26.6034   -1.1752 H         1 UNK         0.0690 
     96 H96        21.9827   24.8717   -2.4038 H         1 UNK         0.0788 
     97 H97        23.3990   24.4778   -3.3776 H         1 UNK         0.0788 
     98 H98        22.6667   26.0676   -3.4931 H         1 UNK         0.0788 
     99 H99        23.8342   25.1025    0.3180 H         1 UNK         0.2993 
    100 H100       24.0271   22.8548    1.2247 H         1 UNK         0.0949 
    101 H101       24.7262   20.8024   -0.0676 H         1 UNK         0.0767 
    102 H102       26.3763   21.4103   -0.1507 H         1 UNK         0.0767 
    103 H103       25.6698   20.9777    1.4041 H         1 UNK         0.0767 
    104 H104       26.4195   24.3397    0.5770 H         1 UNK         0.3013 
    105 H105       30.1218   28.8630    1.0670 H         1 UNK         0.3121 
    106 H106       27.7048   30.3755    1.5718 H         1 UNK         0.0774 
    107 H107       28.8794   32.0779    2.9561 H         1 UNK         0.0815 
    108 H108       29.4400   32.2052    1.2976 H         1 UNK         0.0815 
    109 H109       30.4464   31.4218    2.5124 H         1 UNK         0.0815 
    110 H110       27.1960   30.1723    3.8742 H         1 UNK         0.2987 
    111 H111       27.7361   27.5392    4.8784 H         1 UNK         0.0949 
    112 H112       26.2333   29.9183    6.0967 H         1 UNK         0.0806 
    113 H113       25.5319   28.6106    5.1436 H         1 UNK         0.0806 
    114 H114       26.2156   28.2768    6.7253 H         1 UNK         0.0806 
    115 H115       29.9297   27.4136    5.2315 H         1 UNK         0.3010 
    116 H116       31.7732   27.1977    6.3942 H         1 UNK         0.0829 
    117 H117       30.4275   28.6215    8.7491 H         1 UNK         0.0813 
    118 H118       30.4096   26.8842    8.4480 H         1 UNK         0.0813 
    119 H119       31.9214   27.7017    8.8083 H         1 UNK         0.0813 
    120 H120       30.4782   30.4727    6.4675 H         1 UNK         0.3038 
    121 H121       32.6837   31.9942    7.0942 H         1 UNK         0.0769 
    122 H122       31.5150   33.8316    5.8463 H         1 UNK         0.0811 
    123 H123       30.4608   32.6490    5.0825 H         1 UNK         0.0811 
    124 H124       30.3935   32.9018    6.8259 H         1 UNK         0.0811 
    125 H125       32.1082   30.4379    3.9930 H         1 UNK         0.3204 
    126 H126       34.0893   31.8044    2.4369 H         1 UNK         0.0748 
    127 H127       32.7360   29.0708    2.1444 H         1 UNK         0.0771 
    128 H128       32.3130   30.5713    1.3202 H         1 UNK         0.0771 
    129 H129       33.8158   29.7592    0.9360 H         1 UNK         0.0771 
    130 H130       34.4228   29.4450    4.9701 H         1 UNK         0.2980 
    131 H131       37.2084   28.7732    4.1882 H         1 UNK         0.0545 
    132 H132       37.0459   31.4874    7.0643 H         1 UNK         0.3459 
    133 H133       35.8176   31.3180    5.8343 H         1 UNK         0.3459 
    134 H134       36.9957   26.9849    5.9552 H         1 UNK         0.0616 
    135 H135       35.3193   27.4077    6.1792 H         1 UNK         0.0616 
    136 H136       33.5067   25.8456    4.8897 H         1 UNK         0.0634 
    137 H137       33.5796   27.4190    4.1358 H         1 UNK         0.0634 
@<TRIPOS>BOND
     1    1    2 1    
     2    1   72 1    
     3    1   73 1    
     4    1   74 1    
     5    2    3 2    
     6    2    4 am   BACKBONE|DICT|INTERRES
     7    4    5 1    
     8    4   75 1    
     9    5    6 1    
    10    5   35 1    
    11    5   76 1    
    12    6    7 1    
    13    6   77 1    
    14    6   78 1    
    15    7    8 1    
    16    8    9 1    
    17    8   79 1    
    18    8   80 1    
    19    9   10 ar   
    20    9   14 ar   
    21   10   11 ar   
    22   10   81 1    
    23   11   12 ar   
    24   11   71 1    
    25   12   13 ar   
    26   12   82 1    
    27   13   14 ar   
    28   13   15 1    
    29   14   83 1    
    30   15   16 1    
    31   15   84 1    
    32   15   85 1    
    33   16   17 1    
    34   17   18 1    
    35   17   86 1    
    36   17   87 1    
    37   18   19 1    
    38   18   37 1    
    39   18   88 1    
    40   19   20 am   BACKBONE|DICT|INTERRES
    41   19   89 1    
    42   20   21 2    
    43   20   22 1    
    44   22   23 1    
    45   22   24 1    
    46   22   90 1    
    47   23   91 1    
    48   23   92 1    
    49   23   93 1    
    50   24   25 am   BACKBONE|DICT|INTERRES
    51   24   94 1    
    52   25   26 2    
    53   25   27 1    
    54   27   28 1    
    55   27   29 1    
    56   27   95 1    
    57   28   96 1    
    58   28   97 1    
    59   28   98 1    
    60   29   30 am   BACKBONE|DICT|INTERRES
    61   29   99 1    
    62   30   31 2    
    63   30   32 1    
    64   32   33 1    
    65   32   34 1    
    66   32  100 1    
    67   33  101 1    
    68   33  102 1    
    69   33  103 1    
    70   34   35 am   BACKBONE|DICT|INTERRES
    71   34  104 1    
    72   35   36 2    
    73   37   38 2    
    74   37   39 am   BACKBONE|DICT|INTERRES
    75   39   40 1    
    76   39  105 1    
    77   40   41 1    
    78   40   42 1    
    79   40  106 1    
    80   41  107 1    
    81   41  108 1    
    82   41  109 1    
    83   42   43 2    
    84   42   44 am   BACKBONE|DICT|INTERRES
    85   44   45 1    
    86   44  110 1    
    87   45   46 1    
    88   45   47 1    
    89   45  111 1    
    90   46  112 1    
    91   46  113 1    
    92   46  114 1    
    93   47   48 2    
    94   47   49 am   BACKBONE|DICT|INTERRES
    95   49   50 1    
    96   49  115 1    
    97   50   51 1    
    98   50   52 1    
    99   50  116 1    
   100   51  117 1    
   101   51  118 1    
   102   51  119 1    
   103   52   53 2    
   104   52   54 am   BACKBONE|DICT|INTERRES
   105   54   55 1    
   106   54  120 1    
   107   55   56 1    
   108   55   57 1    
   109   55  121 1    
   110   56  122 1    
   111   56  123 1    
   112   56  124 1    
   113   57   58 2    
   114   57   59 am   BACKBONE|DICT|INTERRES
   115   59   60 1    
   116   59  125 1    
   117   60   61 1    
   118   60   62 1    
   119   60  126 1    
   120   61  127 1    
   121   61  128 1    
   122   61  129 1    
   123   62   63 2    
   124   62   64 am   BACKBONE|DICT|INTERRES
   125   64   65 1    
   126   64  130 1    
   127   65   66 1    
   128   65   69 1    
   129   65  131 1    
   130   66   67 am   BACKBONE|DICT|INTERRES
   131   66   68 2    
   132   67  132 1    
   133   67  133 1    
   134   69   70 1    
   135   69  134 1    
   136   69  135 1    
   137   70   71 1    
   138   71  136 1    
   139   71  137 1    
@<TRIPOS>SUBSTRUCTURE
     1 UNK         1 GROUP             0       ****    0 ROOT    
