@<TRIPOS>MOLECULE
3R136
137   139    1
SMALL
USER_CHARGES


@<TRIPOS>ATOM
      1 CA         28.5003   16.9803    2.2236 C.3       0 UNK        -0.1979 
      2 C          28.2423   18.3111    1.5326 C.2       0 UNK         0.4864 
      3 O          27.1053   18.7841    1.5208 O.2       0 UNK        -0.5359 
      4 N          29.2888   18.9174    0.9563 N.am      1 UNK        -0.4318 
      5 CA         29.2355   20.2131    0.2662 C.3       1 UNK         0.0824 
      6 C6         30.4557   20.4058   -0.6708 C.3       12 UNK        -0.0944 
      7 S7         32.0742   20.3610    0.1850 S.3       12 UNK        -0.2672 
      8 C8         32.8564   21.9080   -0.3766 C.3       12 UNK         0.0333 
      9 C9         32.3392   23.1368    0.3617 C.ar      12 UNK        -0.0807 
     10 C10        32.9215   23.5265    1.5732 C.ar      12 UNK        -0.0894 
     11 C11        32.5010   24.6921    2.2222 C.ar      12 UNK        -0.0804 
     12 C12        31.4710   25.4542    1.6635 C.ar      12 UNK        -0.0824 
     13 C13        30.8736   25.0724    0.4590 C.ar      12 UNK        -0.0762 
     14 C14        31.3188   23.9176   -0.1916 C.ar      12 UNK        -0.0782 
     15 C15        29.7561   25.9156   -0.1402 C.3       12 UNK         0.0230 
     16 S16        30.3686   27.5462   -0.6668 S.3       12 UNK        -0.2608 
     17 C17        28.8250   28.3720   -1.1982 C.3       12 UNK        -0.0989 
     18 CA         28.4915   29.6905   -0.4402 C.3       5 UNK         0.0716 
     19 N          28.1866   29.4823    0.9713 N.am      5 UNK        -0.4135 
     20 C          27.0302   29.0209    1.4528 C.2       4 UNK         0.5031 
     21 O          26.0776   28.6804    0.7472 O.2       4 UNK        -0.5229 
     22 CA         26.9041   28.9191    2.9832 C.3       4 UNK         0.0329 
     23 CB         25.8015   29.8499    3.5140 C.3       4 UNK        -0.2001 
     24 N          26.6110   27.5395    3.3688 N.am      4 UNK        -0.4303 
     25 C          27.5117   26.5538    3.2887 C.2       3 UNK         0.5044 
     26 O          28.7012   26.7450    3.0216 O.2       3 UNK        -0.5152 
     27 CA         27.0008   25.1234    3.5143 C.3       3 UNK         0.0319 
     28 CB         25.9379   24.7377    2.4639 C.3       3 UNK        -0.2001 
     29 N          28.1444   24.2229    3.4197 N.am      3 UNK        -0.4354 
     30 C          28.1988   22.9420    3.7930 C.2       2 UNK         0.4964 
     31 O          27.2605   22.3248    4.3012 O.2       2 UNK        -0.5047 
     32 CA         29.5429   22.2308    3.5566 C.3       2 UNK         0.0288 
     33 CB         30.0414   21.5379    4.8378 C.3       2 UNK        -0.2113 
     34 N          29.4912   21.2357    2.4861 N.am      2 UNK        -0.4145 
     35 C          29.0637   21.4116    1.2256 C.2       1 UNK         0.5006 
     36 O          28.5747   22.4555    0.7918 O.2       1 UNK        -0.5103 
     37 C          29.5991   30.7547   -0.5495 C.2       5 UNK         0.5055 
     38 O          30.2055   31.1214    0.4652 O.2       5 UNK        -0.5220 
     39 N          29.8312   31.2261   -1.7849 N.am      6 UNK        -0.4450 
     40 CA         30.8920   32.1559   -2.2017 C.3       6 UNK         0.0367 
     41 CB         32.2732   31.4778   -2.0719 C.3       6 UNK        -0.1929 
     42 C          30.8484   33.5266   -1.4965 C.2       6 UNK         0.5070 
     43 O          31.8921   34.1608   -1.3358 O.2       6 UNK        -0.5237 
     44 N          29.6526   33.9433   -1.0514 N.am      7 UNK        -0.4739 
     45 CA         29.3164   35.1418   -0.2627 C.3       7 UNK         0.0276 
     46 CB         29.6549   36.4339   -1.0317 C.3       7 UNK        -0.1927 
     47 C          29.9124   35.1758    1.1602 C.2       7 UNK         0.5013 
     48 O          29.2468   35.6619    2.0749 O.2       7 UNK        -0.5193 
     49 N          31.1374   34.6637    1.3268 N.am      8 UNK        -0.4253 
     50 CA         31.8783   34.5846    2.5849 C.3       8 UNK         0.0242 
     51 CB         33.3317   34.1803    2.2871 C.3       8 UNK        -0.2000 
     52 C          31.2586   33.6238    3.6127 C.2       8 UNK         0.4948 
     53 O          31.3782   33.8915    4.8088 O.2       8 UNK        -0.5275 
     54 N          30.6245   32.5375    3.1364 N.am      9 UNK        -0.4246 
     55 CA         29.9939   31.4699    3.9243 C.3       9 UNK         0.0261 
     56 CB         28.7271   31.9872    4.6378 C.3       9 UNK        -0.1959 
     57 C          30.9907   30.7840    4.8784 C.2       9 UNK         0.5033 
     58 O          30.8239   30.8289    6.0987 O.2       9 UNK        -0.5390 
     59 N          32.0345   30.1847    4.2876 N.am      10 UNK        -0.4215 
     60 CA         33.1422   29.5285    4.9923 C.3       10 UNK         0.0240 
     61 CB         34.2468   29.1858    3.9783 C.3       10 UNK        -0.1982 
     62 C          32.7441   28.2804    5.8053 C.2       10 UNK         0.4970 
     63 O          33.4486   27.9441    6.7580 O.2       10 UNK        -0.4916 
     64 N          31.6415   27.6281    5.4222 N.am      11 UNK        -0.4279 
     65 CA         31.0235   26.5010    6.1299 C.3       11 UNK         0.1003 
     66 C          29.6109   26.8985    6.6372 C.2       11 UNK         0.5709 
     67 N          29.0852   26.1790    7.6195 N.am      11 UNK        -0.7358 
     68 O          28.9767   27.8302    6.1453 O.2       11 UNK        -0.4999 
     69 C69        30.9558   25.2400    5.2292 C.3       12 UNK        -0.0954 
     70 S70        32.5637   24.4103    5.0076 S.3       12 UNK        -0.2268 
     71 C71        33.2087   25.1691    3.4835 C.3       12 UNK         0.0203 
     72 H72        27.8924   16.1981    1.7699 H         1 UNK         0.0888 
     73 H73        29.5458   16.6801    2.1538 H         1 UNK         0.0888 
     74 H74        28.2368   17.0482    3.2788 H         1 UNK         0.0888 
     75 H75        30.2007   18.4819    0.9862 H         1 UNK         0.3017 
     76 H76        28.3446   20.2042   -0.3661 H         1 UNK         0.0873 
     77 H77        30.3538   21.3341   -1.2340 H         1 UNK         0.0745 
     78 H78        30.4602   19.6164   -1.4239 H         1 UNK         0.0745 
     79 H79        33.9334   21.8236   -0.2233 H         1 UNK         0.0705 
     80 H80        32.7182   22.0193   -1.4532 H         1 UNK         0.0705 
     81 H81        33.7236   22.9373    1.9968 H         1 UNK         0.1334 
     82 H82        31.1472   26.3644    2.1493 H         1 UNK         0.1417 
     83 H83        30.8709   23.6292   -1.1321 H         1 UNK         0.1562 
     84 H84        28.9581   26.0388    0.5903 H         1 UNK         0.0748 
     85 H85        29.3083   25.4099   -0.9971 H         1 UNK         0.0748 
     86 H86        27.9896   27.6768   -1.1016 H         1 UNK         0.0940 
     87 H87        28.9061   28.5648   -2.2690 H         1 UNK         0.0940 
     88 H88        27.6044   30.1301   -0.9020 H         1 UNK         0.0703 
     89 H89        28.9343   29.7641    1.5894 H         1 UNK         0.3081 
     90 H90        27.8473   29.2113    3.4483 H         1 UNK         0.0719 
     91 H91        24.8215   29.5882    3.1125 H         1 UNK         0.0809 
     92 H92        25.7408   29.8109    4.6018 H         1 UNK         0.0809 
     93 H93        25.9998   30.8861    3.2376 H         1 UNK         0.0809 
     94 H94        25.6463   27.3145    3.5628 H         1 UNK         0.2990 
     95 H95        26.5789   25.0611    4.5192 H         1 UNK         0.0690 
     96 H96        25.0669   25.3916    2.5144 H         1 UNK         0.0788 
     97 H97        25.5778   23.7198    2.6126 H         1 UNK         0.0788 
     98 H98        26.3383   24.8018    1.4509 H         1 UNK         0.0788 
     99 H99        28.9625   24.6687    3.0206 H         1 UNK         0.2993 
    100 H100       30.2853   22.9758    3.2636 H         1 UNK         0.0949 
    101 H101       31.0604   21.1696    4.7165 H         1 UNK         0.0767 
    102 H102       30.0468   22.2221    5.6859 H         1 UNK         0.0767 
    103 H103       29.4075   20.6934    5.1114 H         1 UNK         0.0767 
    104 H104       29.8616   20.3260    2.7149 H         1 UNK         0.3013 
    105 H105       29.2523   30.8793   -2.5378 H         1 UNK         0.3121 
    106 H106       30.7232   32.3603   -3.2600 H         1 UNK         0.0774 
    107 H107       33.0583   32.0946   -2.5108 H         1 UNK         0.0815 
    108 H108       32.5406   31.3043   -1.0288 H         1 UNK         0.0815 
    109 H109       32.2939   30.5170   -2.5862 H         1 UNK         0.0815 
    110 H110       28.8742   33.3220   -1.2226 H         1 UNK         0.2987 
    111 H111       28.2327   35.1138   -0.1360 H         1 UNK         0.0949 
    112 H112       30.7284   36.5532   -1.1805 H         1 UNK         0.0806 
    113 H113       29.1764   36.4497   -2.0109 H         1 UNK         0.0806 
    114 H114       29.3061   37.3122   -0.4868 H         1 UNK         0.0806 
    115 H115       31.6103   34.3399    0.4863 H         1 UNK         0.3010 
    116 H116       31.8832   35.5823    3.0293 H         1 UNK         0.0829 
    117 H117       33.8176   34.9025    1.6308 H         1 UNK         0.0813 
    118 H118       33.9198   34.1303    3.2047 H         1 UNK         0.0813 
    119 H119       33.3884   33.2016    1.8085 H         1 UNK         0.0813 
    120 H120       30.6039   32.4003    2.1306 H         1 UNK         0.3038 
    121 H121       29.6799   30.7089    3.2115 H         1 UNK         0.0769 
    122 H122       28.9610   32.7550    5.3758 H         1 UNK         0.0811 
    123 H123       28.2188   31.1779    5.1638 H         1 UNK         0.0811 
    124 H124       28.0180   32.4120    3.9274 H         1 UNK         0.0811 
    125 H125       32.1004   30.2214    3.2802 H         1 UNK         0.3204 
    126 H126       33.5492   30.2510    5.7032 H         1 UNK         0.0748 
    127 H127       35.0841   28.6826    4.4645 H         1 UNK         0.0771 
    128 H128       33.8834   28.5269    3.1891 H         1 UNK         0.0771 
    129 H129       34.6436   30.0852    3.5068 H         1 UNK         0.0771 
    130 H130       31.0824   28.0170    4.6774 H         1 UNK         0.2980 
    131 H131       31.6092   26.2571    7.0183 H         1 UNK         0.0545 
    132 H132       28.1678   26.4185    7.9609 H         1 UNK         0.3459 
    133 H133       29.5898   25.4120    8.0356 H         1 UNK         0.3459 
    134 H134       30.2880   24.5000    5.6698 H         1 UNK         0.0616 
    135 H135       30.5326   25.4805    4.2581 H         1 UNK         0.0616 
    136 H136       34.2718   24.9360    3.4093 H         1 UNK         0.0634 
    137 H137       33.1490   26.2535    3.5622 H         1 UNK         0.0634 
@<TRIPOS>BOND
     1    1    2 1    
     2    1   72 1    
     3    1   73 1    
     4    1   74 1    
     5    2    3 2    
     6    2    4 am   BACKBONE|DICT|INTERRES
     7    4    5 1    
     8    4   75 1    
     9    5    6 1    
    10    5   35 1    
    11    5   76 1    
    12    6    7 1    
    13    6   77 1    
    14    6   78 1    
    15    7    8 1    
    16    8    9 1    
    17    8   79 1    
    18    8   80 1    
    19    9   10 ar   
    20    9   14 ar   
    21   10   11 ar   
    22   10   81 1    
    23   11   12 ar   
    24   11   71 1    
    25   12   13 ar   
    26   12   82 1    
    27   13   14 ar   
    28   13   15 1    
    29   14   83 1    
    30   15   16 1    
    31   15   84 1    
    32   15   85 1    
    33   16   17 1    
    34   17   18 1    
    35   17   86 1    
    36   17   87 1    
    37   18   19 1    
    38   18   37 1    
    39   18   88 1    
    40   19   20 am   BACKBONE|DICT|INTERRES
    41   19   89 1    
    42   20   21 2    
    43   20   22 1    
    44   22   23 1    
    45   22   24 1    
    46   22   90 1    
    47   23   91 1    
    48   23   92 1    
    49   23   93 1    
    50   24   25 am   BACKBONE|DICT|INTERRES
    51   24   94 1    
    52   25   26 2    
    53   25   27 1    
    54   27   28 1    
    55   27   29 1    
    56   27   95 1    
    57   28   96 1    
    58   28   97 1    
    59   28   98 1    
    60   29   30 am   BACKBONE|DICT|INTERRES
    61   29   99 1    
    62   30   31 2    
    63   30   32 1    
    64   32   33 1    
    65   32   34 1    
    66   32  100 1    
    67   33  101 1    
    68   33  102 1    
    69   33  103 1    
    70   34   35 am   BACKBONE|DICT|INTERRES
    71   34  104 1    
    72   35   36 2    
    73   37   38 2    
    74   37   39 am   BACKBONE|DICT|INTERRES
    75   39   40 1    
    76   39  105 1    
    77   40   41 1    
    78   40   42 1    
    79   40  106 1    
    80   41  107 1    
    81   41  108 1    
    82   41  109 1    
    83   42   43 2    
    84   42   44 am   BACKBONE|DICT|INTERRES
    85   44   45 1    
    86   44  110 1    
    87   45   46 1    
    88   45   47 1    
    89   45  111 1    
    90   46  112 1    
    91   46  113 1    
    92   46  114 1    
    93   47   48 2    
    94   47   49 am   BACKBONE|DICT|INTERRES
    95   49   50 1    
    96   49  115 1    
    97   50   51 1    
    98   50   52 1    
    99   50  116 1    
   100   51  117 1    
   101   51  118 1    
   102   51  119 1    
   103   52   53 2    
   104   52   54 am   BACKBONE|DICT|INTERRES
   105   54   55 1    
   106   54  120 1    
   107   55   56 1    
   108   55   57 1    
   109   55  121 1    
   110   56  122 1    
   111   56  123 1    
   112   56  124 1    
   113   57   58 2    
   114   57   59 am   BACKBONE|DICT|INTERRES
   115   59   60 1    
   116   59  125 1    
   117   60   61 1    
   118   60   62 1    
   119   60  126 1    
   120   61  127 1    
   121   61  128 1    
   122   61  129 1    
   123   62   63 2    
   124   62   64 am   BACKBONE|DICT|INTERRES
   125   64   65 1    
   126   64  130 1    
   127   65   66 1    
   128   65   69 1    
   129   65  131 1    
   130   66   67 am   BACKBONE|DICT|INTERRES
   131   66   68 2    
   132   67  132 1    
   133   67  133 1    
   134   69   70 1    
   135   69  134 1    
   136   69  135 1    
   137   70   71 1    
   138   71  136 1    
   139   71  137 1    
@<TRIPOS>SUBSTRUCTURE
     1 UNK         1 GROUP             0       ****    0 ROOT    
