@<TRIPOS>MOLECULE
3R136
137   139    1
SMALL
USER_CHARGES


@<TRIPOS>ATOM
      1 CA         24.4718   25.1393    2.5338 C.3       0 UNK        -0.1979 
      2 C          25.3424   23.9209    2.2681 C.2       0 UNK         0.4864 
      3 O          24.8310   22.8020    2.1967 O.2       0 UNK        -0.5359 
      4 N          26.6521   24.1309    2.0957 N.am      1 UNK        -0.4318 
      5 CA         27.6487   23.1249    1.7265 C.3       1 UNK         0.0824 
      6 C6         29.0737   23.7152    1.8411 C.3       12 UNK        -0.0944 
      7 S7         30.3545   22.4739    2.2056 S.3       12 UNK        -0.2672 
      8 C8         31.8796   23.3788    1.7584 C.3       12 UNK         0.0333 
      9 C9         31.8719   24.8395    2.2037 C.ar      12 UNK        -0.0807 
     10 C10        31.7112   25.1732    3.5517 C.ar      12 UNK        -0.0894 
     11 C11        31.6531   26.5115    3.9518 C.ar      12 UNK        -0.0804 
     12 C12        31.7802   27.5245    2.9953 C.ar      12 UNK        -0.0824 
     13 C13        31.9658   27.2035    1.6471 C.ar      12 UNK        -0.0762 
     14 C14        32.0079   25.8607    1.2585 C.ar      12 UNK        -0.0782 
     15 C15        32.1593   28.3034    0.6122 C.3       12 UNK         0.0230 
     16 S16        30.6250   29.2112    0.2335 S.3       12 UNK        -0.2608 
     17 C17        29.5993   27.9200   -0.5595 C.3       12 UNK        -0.0989 
     18 CA         28.0977   27.9688   -0.1725 C.3       5 UNK         0.0716 
     19 N          27.3374   27.0274   -1.0018 N.am      5 UNK        -0.4135 
     20 C          26.0065   26.8771   -1.0333 C.2       4 UNK         0.5031 
     21 O          25.2280   27.4682   -0.2834 O.2       4 UNK        -0.5229 
     22 CA         25.4314   25.9568   -2.1249 C.3       4 UNK         0.0329 
     23 CB         26.4437   25.5512   -3.2178 C.3       4 UNK        -0.2001 
     24 N          24.8802   24.7492   -1.5154 N.am      4 UNK        -0.4303 
     25 C          23.5954   24.3690   -1.5731 C.2       3 UNK         0.5044 
     26 O          22.7187   25.0251   -2.1389 O.2       3 UNK        -0.5152 
     27 CA         23.2055   23.0458   -0.8761 C.3       3 UNK         0.0319 
     28 CB         22.0396   22.3193   -1.5813 C.3       3 UNK        -0.2001 
     29 N          24.3337   22.1360   -0.6404 N.am      3 UNK        -0.4354 
     30 C          25.0963   21.5131   -1.5557 C.2       2 UNK         0.4964 
     31 O          24.8821   21.5510   -2.7682 O.2       2 UNK        -0.5047 
     32 CA         26.3277   20.7471   -1.0163 C.3       2 UNK         0.0288 
     33 CB         27.4168   20.5350   -2.0904 C.3       2 UNK        -0.2113 
     34 N          26.9040   21.3623    0.1901 N.am      2 UNK        -0.4145 
     35 C          27.3414   22.6261    0.3045 C.2       1 UNK         0.5006 
     36 O          27.4048   23.4227   -0.6349 O.2       1 UNK        -0.5103 
     37 C          27.8925   27.7462    1.3417 C.2       5 UNK         0.5055 
     38 O          27.7944   26.6058    1.7924 O.2       5 UNK        -0.5220 
     39 N          27.8903   28.8457    2.1011 N.am      6 UNK        -0.4450 
     40 CA         27.9567   28.8628    3.5625 C.3       6 UNK         0.0367 
     41 CB         26.5502   28.6701    4.1638 C.3       6 UNK        -0.1929 
     42 C          28.6472   30.1496    4.0524 C.2       6 UNK         0.5070 
     43 O          28.3683   30.6082    5.1608 O.2       6 UNK        -0.5237 
     44 N          29.5124   30.7388    3.2127 N.am      7 UNK        -0.4739 
     45 CA         30.2161   31.9895    3.4925 C.3       7 UNK         0.0276 
     46 CB         30.6701   32.6230    2.1663 C.3       7 UNK        -0.1927 
     47 C          31.4108   31.7303    4.4179 C.2       7 UNK         0.5013 
     48 O          32.3968   31.1398    3.9737 O.2       7 UNK        -0.5193 
     49 N          31.3127   32.1852    5.6744 N.am      8 UNK        -0.4253 
     50 CA         32.2992   31.9784    6.7440 C.3       8 UNK         0.0242 
     51 CB         31.7996   32.6565    8.0299 C.3       8 UNK        -0.2000 
     52 C          33.7302   32.4453    6.4161 C.2       8 UNK         0.4948 
     53 O          34.6836   31.8511    6.9181 O.2       8 UNK        -0.5275 
     54 N          33.8570   33.4786    5.5718 N.am      9 UNK        -0.4246 
     55 CA         35.1353   33.9952    5.0763 C.3       9 UNK         0.0261 
     56 CB         34.9113   35.3833    4.4541 C.3       9 UNK        -0.1959 
     57 C          35.8270   33.0607    4.0651 C.2       9 UNK         0.5033 
     58 O          37.0551   33.0894    3.9725 O.2       9 UNK        -0.5390 
     59 N          35.0419   32.2685    3.3219 N.am      10 UNK        -0.4215 
     60 CA         35.5273   31.3045    2.3304 C.3       10 UNK         0.0240 
     61 CB         34.6001   31.3453    1.1054 C.3       10 UNK        -0.1982 
     62 C          35.6207   29.8787    2.9023 C.2       10 UNK         0.4970 
     63 O          36.4033   29.0797    2.3873 O.2       10 UNK        -0.4916 
     64 N          34.8276   29.5903    3.9420 N.am      11 UNK        -0.4279 
     65 CA         34.7917   28.3380    4.7080 C.3       11 UNK         0.1003 
     66 C          36.1754   27.9100    5.2747 C.2       11 UNK         0.5709 
     67 N          36.4853   26.6206    5.2521 N.am      11 UNK        -0.7358 
     68 O          36.9508   28.7291    5.7647 O.2       11 UNK        -0.4999 
     69 C69        33.7283   28.4495    5.8332 C.3       12 UNK        -0.0954 
     70 S70        33.0220   26.8463    6.3312 S.3       12 UNK        -0.2268 
     71 C71        31.4465   26.8503    5.4194 C.3       12 UNK         0.0203 
     72 H72        25.0155   26.0678    2.3589 H         1 UNK         0.0888 
     73 H73        24.1215   25.1343    3.5653 H         1 UNK         0.0888 
     74 H74        23.6035   25.1338    1.8759 H         1 UNK         0.0888 
     75 H75        27.0092   25.0885    2.0940 H         1 UNK         0.3017 
     76 H76        27.5486   22.2990    2.4339 H         1 UNK         0.0873 
     77 H77        29.1052   24.4253    2.6691 H         1 UNK         0.0745 
     78 H78        29.3469   24.2917    0.9544 H         1 UNK         0.0745 
     79 H79        32.7359   22.8727    2.2059 H         1 UNK         0.0705 
     80 H80        32.0127   23.3085    0.6778 H         1 UNK         0.0705 
     81 H81        31.6086   24.3874    4.2877 H         1 UNK         0.1334 
     82 H82        31.7497   28.5622    3.2989 H         1 UNK         0.1417 
     83 H83        32.1454   25.6100    0.2155 H         1 UNK         0.1562 
     84 H84        32.5716   27.8994   -0.3138 H         1 UNK         0.0748 
     85 H85        32.9013   29.0051    0.9894 H         1 UNK         0.0748 
     86 H86        30.0040   26.9317   -0.3387 H         1 UNK         0.0940 
     87 H87        29.7071   28.0482   -1.6378 H         1 UNK         0.0940 
     88 H88        27.7173   28.9627   -0.4177 H         1 UNK         0.0703 
     89 H89        27.8816   26.4532   -1.6276 H         1 UNK         0.3081 
     90 H90        24.6430   26.5324   -2.6139 H         1 UNK         0.0719 
     91 H91        27.2549   24.9360   -2.8273 H         1 UNK         0.0809 
     92 H92        25.9523   24.9750   -4.0022 H         1 UNK         0.0809 
     93 H93        26.8834   26.4268   -3.6976 H         1 UNK         0.0809 
     94 H94        25.5541   24.1573   -1.0407 H         1 UNK         0.2990 
     95 H95        22.8512   23.3325    0.1149 H         1 UNK         0.0690 
     96 H96        21.7805   21.3931   -1.0685 H         1 UNK         0.0788 
     97 H97        22.2794   22.0753   -2.6165 H         1 UNK         0.0788 
     98 H98        21.1430   22.9401   -1.5958 H         1 UNK         0.0788 
     99 H99        24.6068   22.0601    0.3359 H         1 UNK         0.2993 
    100 H100       25.9612   19.7638   -0.7177 H         1 UNK         0.0949 
    101 H101       27.0311   19.9570   -2.9310 H         1 UNK         0.0767 
    102 H102       27.7828   21.4822   -2.4883 H         1 UNK         0.0767 
    103 H103       28.2697   19.9886   -1.6877 H         1 UNK         0.0767 
    104 H104       26.8541   20.8002    1.0292 H         1 UNK         0.3013 
    105 H105       27.9474   29.7496    1.6518 H         1 UNK         0.3121 
    106 H106       28.5898   28.0363    3.8937 H         1 UNK         0.0774 
    107 H107       26.1052   27.7295    3.8408 H         1 UNK         0.0815 
    108 H108       25.8772   29.4775    3.8736 H         1 UNK         0.0815 
    109 H109       26.5868   28.6477    5.2536 H         1 UNK         0.0815 
    110 H110       29.7725   30.2623    2.3595 H         1 UNK         0.2987 
    111 H111       29.5291   32.6859    3.9788 H         1 UNK         0.0949 
    112 H112       31.3211   31.9579    1.5986 H         1 UNK         0.0806 
    113 H113       29.8171   32.8704    1.5343 H         1 UNK         0.0806 
    114 H114       31.2216   33.5476    2.3418 H         1 UNK         0.0806 
    115 H115       30.4528   32.6402    5.9472 H         1 UNK         0.3010 
    116 H116       32.3476   30.9045    6.9307 H         1 UNK         0.0829 
    117 H117       30.8379   32.2514    8.3456 H         1 UNK         0.0813 
    118 H118       32.4993   32.4987    8.8522 H         1 UNK         0.0813 
    119 H119       31.6860   33.7336    7.9012 H         1 UNK         0.0813 
    120 H120       33.0174   33.9198    5.2253 H         1 UNK         0.3038 
    121 H121       35.8082   34.1095    5.9292 H         1 UNK         0.0769 
    122 H122       34.2330   35.3405    3.6010 H         1 UNK         0.0811 
    123 H123       35.8521   35.8080    4.1006 H         1 UNK         0.0811 
    124 H124       34.4961   36.0822    5.1804 H         1 UNK         0.0811 
    125 H125       34.0437   32.2620    3.4997 H         1 UNK         0.3204 
    126 H126       36.5293   31.5843    1.9982 H         1 UNK         0.0748 
    127 H127       34.6399   32.3181    0.6151 H         1 UNK         0.0771 
    128 H128       34.8891   30.5977    0.3653 H         1 UNK         0.0771 
    129 H129       33.5632   31.1567    1.3810 H         1 UNK         0.0771 
    130 H130       34.1566   30.2918    4.2298 H         1 UNK         0.2980 
    131 H131       34.4717   27.5746    3.9970 H         1 UNK         0.0545 
    132 H132       37.3717   26.3217    5.6271 H         1 UNK         0.3459 
    133 H133       35.8415   25.9401    4.8800 H         1 UNK         0.3459 
    134 H134       34.1382   28.9452    6.7154 H         1 UNK         0.0616 
    135 H135       32.9006   29.0793    5.5104 H         1 UNK         0.0616 
    136 H136       30.7805   26.1143    5.8723 H         1 UNK         0.0634 
    137 H137       30.9476   27.8145    5.5295 H         1 UNK         0.0634 
@<TRIPOS>BOND
     1    1    2 1    
     2    1   72 1    
     3    1   73 1    
     4    1   74 1    
     5    2    3 2    
     6    2    4 am   BACKBONE|DICT|INTERRES
     7    4    5 1    
     8    4   75 1    
     9    5    6 1    
    10    5   35 1    
    11    5   76 1    
    12    6    7 1    
    13    6   77 1    
    14    6   78 1    
    15    7    8 1    
    16    8    9 1    
    17    8   79 1    
    18    8   80 1    
    19    9   10 ar   
    20    9   14 ar   
    21   10   11 ar   
    22   10   81 1    
    23   11   12 ar   
    24   11   71 1    
    25   12   13 ar   
    26   12   82 1    
    27   13   14 ar   
    28   13   15 1    
    29   14   83 1    
    30   15   16 1    
    31   15   84 1    
    32   15   85 1    
    33   16   17 1    
    34   17   18 1    
    35   17   86 1    
    36   17   87 1    
    37   18   19 1    
    38   18   37 1    
    39   18   88 1    
    40   19   20 am   BACKBONE|DICT|INTERRES
    41   19   89 1    
    42   20   21 2    
    43   20   22 1    
    44   22   23 1    
    45   22   24 1    
    46   22   90 1    
    47   23   91 1    
    48   23   92 1    
    49   23   93 1    
    50   24   25 am   BACKBONE|DICT|INTERRES
    51   24   94 1    
    52   25   26 2    
    53   25   27 1    
    54   27   28 1    
    55   27   29 1    
    56   27   95 1    
    57   28   96 1    
    58   28   97 1    
    59   28   98 1    
    60   29   30 am   BACKBONE|DICT|INTERRES
    61   29   99 1    
    62   30   31 2    
    63   30   32 1    
    64   32   33 1    
    65   32   34 1    
    66   32  100 1    
    67   33  101 1    
    68   33  102 1    
    69   33  103 1    
    70   34   35 am   BACKBONE|DICT|INTERRES
    71   34  104 1    
    72   35   36 2    
    73   37   38 2    
    74   37   39 am   BACKBONE|DICT|INTERRES
    75   39   40 1    
    76   39  105 1    
    77   40   41 1    
    78   40   42 1    
    79   40  106 1    
    80   41  107 1    
    81   41  108 1    
    82   41  109 1    
    83   42   43 2    
    84   42   44 am   BACKBONE|DICT|INTERRES
    85   44   45 1    
    86   44  110 1    
    87   45   46 1    
    88   45   47 1    
    89   45  111 1    
    90   46  112 1    
    91   46  113 1    
    92   46  114 1    
    93   47   48 2    
    94   47   49 am   BACKBONE|DICT|INTERRES
    95   49   50 1    
    96   49  115 1    
    97   50   51 1    
    98   50   52 1    
    99   50  116 1    
   100   51  117 1    
   101   51  118 1    
   102   51  119 1    
   103   52   53 2    
   104   52   54 am   BACKBONE|DICT|INTERRES
   105   54   55 1    
   106   54  120 1    
   107   55   56 1    
   108   55   57 1    
   109   55  121 1    
   110   56  122 1    
   111   56  123 1    
   112   56  124 1    
   113   57   58 2    
   114   57   59 am   BACKBONE|DICT|INTERRES
   115   59   60 1    
   116   59  125 1    
   117   60   61 1    
   118   60   62 1    
   119   60  126 1    
   120   61  127 1    
   121   61  128 1    
   122   61  129 1    
   123   62   63 2    
   124   62   64 am   BACKBONE|DICT|INTERRES
   125   64   65 1    
   126   64  130 1    
   127   65   66 1    
   128   65   69 1    
   129   65  131 1    
   130   66   67 am   BACKBONE|DICT|INTERRES
   131   66   68 2    
   132   67  132 1    
   133   67  133 1    
   134   69   70 1    
   135   69  134 1    
   136   69  135 1    
   137   70   71 1    
   138   71  136 1    
   139   71  137 1    
@<TRIPOS>SUBSTRUCTURE
     1 UNK         1 GROUP             0       ****    0 ROOT    
