@<TRIPOS>MOLECULE
3R136
137   139    1
SMALL
USER_CHARGES


@<TRIPOS>ATOM
      1 CA         28.1855   19.5848   -2.6738 C.3       0 UNK        -0.1979 
      2 C          29.4901   20.2247   -2.2229 C.2       0 UNK         0.4864 
      3 O          30.2419   20.7329   -3.0557 O.2       0 UNK        -0.5359 
      4 N          29.7636   20.2021   -0.9117 N.am      1 UNK        -0.4318 
      5 CA         30.9477   20.8003   -0.2806 C.3       1 UNK         0.0824 
      6 C6         31.1543   20.2780    1.1641 C.3       12 UNK        -0.0944 
      7 S7         29.6803   20.4411    2.2359 S.3       12 UNK        -0.2672 
      8 C8         30.4250   20.8646    3.8411 C.3       12 UNK         0.0333 
      9 C9         30.7216   22.3523    3.9617 C.ar      12 UNK        -0.0807 
     10 C10        32.0032   22.8447    3.6961 C.ar      12 UNK        -0.0894 
     11 C11        32.2856   24.2051    3.8505 C.ar      12 UNK        -0.0804 
     12 C12        31.2748   25.0775    4.2631 C.ar      12 UNK        -0.0824 
     13 C13        29.9909   24.5963    4.5357 C.ar      12 UNK        -0.0762 
     14 C14        29.7193   23.2333    4.3817 C.ar      12 UNK        -0.0782 
     15 C15        28.9107   25.5471    5.0252 C.3       12 UNK         0.0230 
     16 S16        27.7005   25.9282    3.7208 S.3       12 UNK        -0.2608 
     17 C17        26.9908   27.4693    4.3824 C.3       12 UNK        -0.0989 
     18 CA         27.5106   28.6973    3.5983 C.3       5 UNK         0.0716 
     19 N          26.9527   28.7487    2.2414 N.am      5 UNK        -0.4135 
     20 C          27.1969   29.6955    1.3252 C.2       4 UNK         0.5031 
     21 O          27.9489   30.6544    1.5122 O.2       4 UNK        -0.5229 
     22 CA         26.5264   29.5117   -0.0421 C.3       4 UNK         0.0329 
     23 CB         27.0156   30.5316   -1.0917 C.3       4 UNK        -0.2001 
     24 N          26.7485   28.1488   -0.5290 N.am      4 UNK        -0.4303 
     25 C          25.9183   27.4811   -1.3411 C.2       3 UNK         0.5044 
     26 O          24.8421   27.9377   -1.7299 O.2       3 UNK        -0.5152 
     27 CA         26.3451   26.0779   -1.8128 C.3       3 UNK         0.0319 
     28 CB         26.2526   25.9510   -3.3451 C.3       3 UNK        -0.2001 
     29 N          27.7051   25.7196   -1.3899 N.am      3 UNK        -0.4354 
     30 C          28.0324   24.5795   -0.7695 C.2       2 UNK         0.4964 
     31 O          27.2221   23.7024   -0.4562 O.2       2 UNK        -0.5047 
     32 CA         29.5171   24.3844   -0.4403 C.3       2 UNK         0.0288 
     33 CB         29.8940   25.1008    0.8678 C.3       2 UNK        -0.2113 
     34 N          29.7659   22.9534   -0.3187 N.am      2 UNK        -0.4145 
     35 C          30.9560   22.3437   -0.3454 C.2       1 UNK         0.5006 
     36 O          32.0307   22.9393   -0.4445 O.2       1 UNK        -0.5103 
     37 C          27.2331   29.9944    4.3800 C.2       5 UNK         0.5055 
     38 O          26.0703   30.3779    4.5212 O.2       5 UNK        -0.5220 
     39 N          28.3090   30.6532    4.8320 N.am      6 UNK        -0.4450 
     40 CA         28.3763   31.9314    5.5553 C.3       6 UNK         0.0367 
     41 CB         27.5550   31.8989    6.8594 C.3       6 UNK        -0.1929 
     42 C          28.0296   33.1676    4.7039 C.2       6 UNK         0.5070 
     43 O          28.5409   34.2495    4.9942 O.2       6 UNK        -0.5237 
     44 N          27.2007   33.0016    3.6653 N.am      7 UNK        -0.4739 
     45 CA         26.8676   34.0294    2.6780 C.3       7 UNK         0.0276 
     46 CB         25.6661   33.5624    1.8406 C.3       7 UNK        -0.1927 
     47 C          28.0600   34.3795    1.7722 C.2       7 UNK         0.5013 
     48 O          28.2362   35.5514    1.4355 O.2       7 UNK        -0.5193 
     49 N          28.8593   33.3671    1.4132 N.am      8 UNK        -0.4253 
     50 CA         30.0817   33.5109    0.6230 C.3       8 UNK         0.0242 
     51 CB         29.7483   33.5372   -0.8799 C.3       8 UNK        -0.2000 
     52 C          31.1111   32.4160    0.9354 C.2       8 UNK         0.4948 
     53 O          32.3059   32.7154    0.9580 O.2       8 UNK        -0.5275 
     54 N          30.6551   31.1752    1.1531 N.am      9 UNK        -0.4246 
     55 CA         31.5105   30.0226    1.4278 C.3       9 UNK         0.0261 
     56 CB         30.8480   28.7536    0.8685 C.3       9 UNK        -0.1959 
     57 C          31.7516   29.8719    2.9346 C.2       9 UNK         0.5033 
     58 O          30.8165   30.0199    3.7265 O.2       9 UNK        -0.5390 
     59 N          32.9893   29.5241    3.2906 N.am      10 UNK        -0.4215 
     60 CA         33.4470   29.2035    4.6369 C.3       10 UNK         0.0240 
     61 CB         33.6130   30.4869    5.4729 C.3       10 UNK        -0.1982 
     62 C          34.7764   28.4524    4.5015 C.2       10 UNK         0.4970 
     63 O          35.4745   28.6320    3.4992 O.2       10 UNK        -0.4916 
     64 N          35.0992   27.6306    5.5021 N.am      11 UNK        -0.4279 
     65 CA         36.3068   26.7899    5.5410 C.3       11 UNK         0.1003 
     66 C          36.8185   26.5016    6.9828 C.2       11 UNK         0.5709 
     67 N          36.3461   27.2036    8.0076 N.am      11 UNK        -0.7358 
     68 O          37.6783   25.6461    7.1808 O.2       11 UNK        -0.4999 
     69 C69        36.1793   25.5211    4.6469 C.3       12 UNK        -0.0954 
     70 S70        34.7392   24.4786    5.0621 S.3       12 UNK        -0.2268 
     71 C71        33.6884   24.7309    3.5985 C.3       12 UNK         0.0203 
     72 H72        28.3861   18.7842   -3.3852 H         1 UNK         0.0888 
     73 H73        27.6277   19.1632   -1.8377 H         1 UNK         0.0888 
     74 H74        27.5540   20.3260   -3.1629 H         1 UNK         0.0888 
     75 H75        29.1116   19.7703   -0.2711 H         1 UNK         0.3017 
     76 H76        31.8125   20.4744   -0.8631 H         1 UNK         0.0873 
     77 H77        31.4144   19.2189    1.1289 H         1 UNK         0.0745 
     78 H78        32.0120   20.7696    1.6251 H         1 UNK         0.0745 
     79 H79        31.3295   20.2746    3.9973 H         1 UNK         0.0705 
     80 H80        29.7345   20.5684    4.6323 H         1 UNK         0.0705 
     81 H81        32.7897   22.1691    3.3897 H         1 UNK         0.1334 
     82 H82        31.4925   26.1295    4.3868 H         1 UNK         0.1417 
     83 H83        28.7270   22.8581    4.5936 H         1 UNK         0.1562 
     84 H84        29.3670   26.4729    5.3800 H         1 UNK         0.0748 
     85 H85        28.3933   25.1115    5.8813 H         1 UNK         0.0748 
     86 H86        27.2317   27.5459    5.4450 H         1 UNK         0.0940 
     87 H87        25.9017   27.4098    4.3319 H         1 UNK         0.0940 
     88 H88        28.5922   28.5973    3.4905 H         1 UNK         0.0703 
     89 H89        26.3170   28.0022    2.0025 H         1 UNK         0.3081 
     90 H90        25.4582   29.6713    0.1200 H         1 UNK         0.0719 
     91 H91        28.0794   30.4114   -1.2992 H         1 UNK         0.0809 
     92 H92        26.4771   30.4225   -2.0330 H         1 UNK         0.0809 
     93 H93        26.8605   31.5560   -0.7510 H         1 UNK         0.0809 
     94 H94        27.5889   27.6918   -0.2063 H         1 UNK         0.2990 
     95 H95        25.6204   25.3890   -1.3738 H         1 UNK         0.0690 
     96 H96        26.5022   24.9419   -3.6737 H         1 UNK         0.0788 
     97 H97        26.9278   26.6443   -3.8480 H         1 UNK         0.0788 
     98 H98        25.2428   26.1624   -3.6997 H         1 UNK         0.0788 
     99 H99        28.4385   26.3674   -1.6436 H         1 UNK         0.2993 
    100 H100       30.1137   24.7789   -1.2656 H         1 UNK         0.0949 
    101 H101       29.5810   26.1439    0.8598 H         1 UNK         0.0767 
    102 H102       29.4166   24.6232    1.7227 H         1 UNK         0.0767 
    103 H103       30.9703   25.0829    1.0397 H         1 UNK         0.0767 
    104 H104       28.9236   22.3953   -0.2487 H         1 UNK         0.3013 
    105 H105       29.2233   30.3001    4.5416 H         1 UNK         0.3121 
    106 H106       29.4256   32.0426    5.8342 H         1 UNK         0.0774 
    107 H107       27.7272   32.8019    7.4465 H         1 UNK         0.0815 
    108 H108       26.4834   31.8412    6.6678 H         1 UNK         0.0815 
    109 H109       27.8327   31.0492    7.4828 H         1 UNK         0.0815 
    110 H110       26.7965   32.0819    3.5332 H         1 UNK         0.2987 
    111 H111       26.5812   34.9366    3.2148 H         1 UNK         0.0949 
    112 H112       25.3888   34.3160    1.1023 H         1 UNK         0.0806 
    113 H113       25.8827   32.6405    1.3005 H         1 UNK         0.0806 
    114 H114       24.7916   33.3856    2.4670 H         1 UNK         0.0806 
    115 H115       28.6069   32.4289    1.7118 H         1 UNK         0.3010 
    116 H116       30.5523   34.4612    0.8858 H         1 UNK         0.0829 
    117 H117       29.0991   34.3766   -1.1292 H         1 UNK         0.0813 
    118 H118       30.6539   33.6402   -1.4792 H         1 UNK         0.0813 
    119 H119       29.2487   32.6218   -1.1967 H         1 UNK         0.0813 
    120 H120       29.6530   30.9999    1.1864 H         1 UNK         0.3038 
    121 H121       32.4681   30.1550    0.9189 H         1 UNK         0.0769 
    122 H122       29.9186   28.5229    1.3879 H         1 UNK         0.0811 
    123 H123       31.5052   27.8905    0.9827 H         1 UNK         0.0811 
    124 H124       30.6256   28.8547   -0.1938 H         1 UNK         0.0811 
    125 H125       33.7051   29.3954    2.5842 H         1 UNK         0.3204 
    126 H126       32.7156   28.5449    5.1103 H         1 UNK         0.0748 
    127 H127       33.9777   30.2594    6.4752 H         1 UNK         0.0771 
    128 H128       34.3235   31.1756    5.0138 H         1 UNK         0.0771 
    129 H129       32.6653   31.0134    5.5881 H         1 UNK         0.0771 
    130 H130       34.4666   27.5151    6.2805 H         1 UNK         0.2980 
    131 H131       37.1171   27.3848    5.1155 H         1 UNK         0.0545 
    132 H132       36.6961   27.0055    8.9320 H         1 UNK         0.3459 
    133 H133       35.6989   27.9625    7.8727 H         1 UNK         0.3459 
    134 H134       37.0791   24.9071    4.7116 H         1 UNK         0.0616 
    135 H135       36.1154   25.8193    3.5995 H         1 UNK         0.0616 
    136 H136       34.1320   24.2249    2.7396 H         1 UNK         0.0634 
    137 H137       33.6519   25.7926    3.3499 H         1 UNK         0.0634 
@<TRIPOS>BOND
     1    1    2 1    
     2    1   72 1    
     3    1   73 1    
     4    1   74 1    
     5    2    3 2    
     6    2    4 am   BACKBONE|DICT|INTERRES
     7    4    5 1    
     8    4   75 1    
     9    5    6 1    
    10    5   35 1    
    11    5   76 1    
    12    6    7 1    
    13    6   77 1    
    14    6   78 1    
    15    7    8 1    
    16    8    9 1    
    17    8   79 1    
    18    8   80 1    
    19    9   10 ar   
    20    9   14 ar   
    21   10   11 ar   
    22   10   81 1    
    23   11   12 ar   
    24   11   71 1    
    25   12   13 ar   
    26   12   82 1    
    27   13   14 ar   
    28   13   15 1    
    29   14   83 1    
    30   15   16 1    
    31   15   84 1    
    32   15   85 1    
    33   16   17 1    
    34   17   18 1    
    35   17   86 1    
    36   17   87 1    
    37   18   19 1    
    38   18   37 1    
    39   18   88 1    
    40   19   20 am   BACKBONE|DICT|INTERRES
    41   19   89 1    
    42   20   21 2    
    43   20   22 1    
    44   22   23 1    
    45   22   24 1    
    46   22   90 1    
    47   23   91 1    
    48   23   92 1    
    49   23   93 1    
    50   24   25 am   BACKBONE|DICT|INTERRES
    51   24   94 1    
    52   25   26 2    
    53   25   27 1    
    54   27   28 1    
    55   27   29 1    
    56   27   95 1    
    57   28   96 1    
    58   28   97 1    
    59   28   98 1    
    60   29   30 am   BACKBONE|DICT|INTERRES
    61   29   99 1    
    62   30   31 2    
    63   30   32 1    
    64   32   33 1    
    65   32   34 1    
    66   32  100 1    
    67   33  101 1    
    68   33  102 1    
    69   33  103 1    
    70   34   35 am   BACKBONE|DICT|INTERRES
    71   34  104 1    
    72   35   36 2    
    73   37   38 2    
    74   37   39 am   BACKBONE|DICT|INTERRES
    75   39   40 1    
    76   39  105 1    
    77   40   41 1    
    78   40   42 1    
    79   40  106 1    
    80   41  107 1    
    81   41  108 1    
    82   41  109 1    
    83   42   43 2    
    84   42   44 am   BACKBONE|DICT|INTERRES
    85   44   45 1    
    86   44  110 1    
    87   45   46 1    
    88   45   47 1    
    89   45  111 1    
    90   46  112 1    
    91   46  113 1    
    92   46  114 1    
    93   47   48 2    
    94   47   49 am   BACKBONE|DICT|INTERRES
    95   49   50 1    
    96   49  115 1    
    97   50   51 1    
    98   50   52 1    
    99   50  116 1    
   100   51  117 1    
   101   51  118 1    
   102   51  119 1    
   103   52   53 2    
   104   52   54 am   BACKBONE|DICT|INTERRES
   105   54   55 1    
   106   54  120 1    
   107   55   56 1    
   108   55   57 1    
   109   55  121 1    
   110   56  122 1    
   111   56  123 1    
   112   56  124 1    
   113   57   58 2    
   114   57   59 am   BACKBONE|DICT|INTERRES
   115   59   60 1    
   116   59  125 1    
   117   60   61 1    
   118   60   62 1    
   119   60  126 1    
   120   61  127 1    
   121   61  128 1    
   122   61  129 1    
   123   62   63 2    
   124   62   64 am   BACKBONE|DICT|INTERRES
   125   64   65 1    
   126   64  130 1    
   127   65   66 1    
   128   65   69 1    
   129   65  131 1    
   130   66   67 am   BACKBONE|DICT|INTERRES
   131   66   68 2    
   132   67  132 1    
   133   67  133 1    
   134   69   70 1    
   135   69  134 1    
   136   69  135 1    
   137   70   71 1    
   138   71  136 1    
   139   71  137 1    
@<TRIPOS>SUBSTRUCTURE
     1 UNK         1 GROUP             0       ****    0 ROOT    
