@<TRIPOS>MOLECULE
3R136
137   139    1
SMALL
USER_CHARGES


@<TRIPOS>ATOM
      1 CA         34.6351   24.0710    0.1013 C.3       0 UNK        -0.1979 
      2 C          33.2130   23.5467    0.2322 C.2       0 UNK         0.4864 
      3 O          32.8782   22.5421   -0.3952 O.2       0 UNK        -0.5359 
      4 N          32.3702   24.2324    1.0172 N.am      1 UNK        -0.4318 
      5 CA         30.9851   23.8899    1.3959 C.3       1 UNK         0.0824 
      6 C6         30.8645   22.5335    2.1508 C.3       12 UNK        -0.0944 
      7 S7         32.0750   22.3362    3.5098 S.3       12 UNK        -0.2672 
      8 C8         31.0340   22.4340    5.0073 C.3       12 UNK         0.0333 
      9 C9         30.3511   23.7823    5.2360 C.ar      12 UNK        -0.0807 
     10 C10        30.9239   24.9875    4.8101 C.ar      12 UNK        -0.0894 
     11 C11        30.2533   26.1983    4.9991 C.ar      12 UNK        -0.0804 
     12 C12        29.0514   26.2186    5.7073 C.ar      12 UNK        -0.0824 
     13 C13        28.4487   25.0241    6.1037 C.ar      12 UNK        -0.0762 
     14 C14        29.1083   23.8119    5.8780 C.ar      12 UNK        -0.0782 
     15 C15        27.0523   25.0355    6.7044 C.3       12 UNK         0.0230 
     16 S16        25.7890   24.9369    5.3897 S.3       12 UNK        -0.2608 
     17 C17        25.4709   26.6932    4.9909 C.3       12 UNK        -0.0989 
     18 CA         26.2994   27.2513    3.7963 C.3       5 UNK         0.0716 
     19 N          26.2050   26.4651    2.5651 N.am      5 UNK        -0.4135 
     20 C          25.1155   26.2711    1.8138 C.2       4 UNK         0.5031 
     21 O          24.0106   26.7671    2.0432 O.2       4 UNK        -0.5229 
     22 CA         25.3282   25.3540    0.5974 C.3       4 UNK         0.0329 
     23 CB         24.0398   25.1028   -0.2161 C.3       4 UNK        -0.2001 
     24 N          26.4217   25.8259   -0.2614 N.am      4 UNK        -0.4303 
     25 C          26.4634   26.9588   -0.9833 C.2       3 UNK         0.5044 
     26 O          25.5643   27.8000   -0.9880 O.2       3 UNK        -0.5152 
     27 CA         27.7099   27.2150   -1.8580 C.3       3 UNK         0.0319 
     28 CB         28.3961   28.5328   -1.4686 C.3       3 UNK        -0.2001 
     29 N          28.6985   26.1324   -1.8285 N.am      3 UNK        -0.4354 
     30 C          28.5513   24.9560   -2.4539 C.2       2 UNK         0.4964 
     31 O          27.5821   24.6827   -3.1629 O.2       2 UNK        -0.5047 
     32 CA         29.6422   23.8891   -2.2562 C.3       2 UNK         0.0288 
     33 CB         30.6223   23.9081   -3.4406 C.3       2 UNK        -0.2113 
     34 N          30.4120   23.9688   -1.0110 N.am      2 UNK        -0.4145 
     35 C          29.9480   23.9742    0.2467 C.2       1 UNK         0.5006 
     36 O          28.7476   24.0407    0.5241 O.2       1 UNK        -0.5103 
     37 C          26.0693   28.7592    3.5612 C.2       5 UNK         0.5055 
     38 O          25.3010   29.3902    4.2898 O.2       5 UNK        -0.5220 
     39 N          26.7722   29.3235    2.5677 N.am      6 UNK        -0.4450 
     40 CA         26.7827   30.7657    2.2876 C.3       6 UNK         0.0367 
     41 CB         27.2387   31.0034    0.8405 C.3       6 UNK        -0.1929 
     42 C          27.6499   31.5799    3.2699 C.2       6 UNK         0.5070 
     43 O          27.5401   32.8054    3.2844 O.2       6 UNK        -0.5237 
     44 N          28.4990   30.8963    4.0552 N.am      7 UNK        -0.4739 
     45 CA         29.3831   31.4281    5.1065 C.3       7 UNK         0.0276 
     46 CB         28.5716   32.1260    6.2188 C.3       7 UNK        -0.1927 
     47 C          30.5484   32.3004    4.5960 C.2       7 UNK         0.5013 
     48 O          31.2051   32.9678    5.3980 O.2       7 UNK        -0.5193 
     49 N          30.8269   32.2515    3.2869 N.am      8 UNK        -0.4253 
     50 CA         31.9663   32.8918    2.6260 C.3       8 UNK         0.0242 
     51 CB         31.6595   33.0065    1.1208 C.3       8 UNK        -0.2000 
     52 C          33.2734   32.1227    2.9038 C.2       8 UNK         0.4948 
     53 O          33.8217   31.4911    1.9973 O.2       8 UNK        -0.5275 
     54 N          33.7204   32.1510    4.1677 N.am      9 UNK        -0.4246 
     55 CA         34.8473   31.3952    4.7268 C.3       9 UNK         0.0261 
     56 CB         36.1925   31.8899    4.1452 C.3       9 UNK        -0.1959 
     57 C          34.6031   29.8812    4.5799 C.2       9 UNK         0.5033 
     58 O          33.6822   29.3662    5.2156 O.2       9 UNK        -0.5390 
     59 N          35.3916   29.2058    3.7317 N.am      10 UNK        -0.4215 
     60 CA         35.2041   27.7998    3.3562 C.3       10 UNK         0.0240 
     61 CB         36.4643   27.2939    2.6357 C.3       10 UNK        -0.1982 
     62 C          33.9559   27.5576    2.4858 C.2       10 UNK         0.4970 
     63 O          33.4713   26.4268    2.4495 O.2       10 UNK        -0.4916 
     64 N          33.4659   28.6101    1.8153 N.am      11 UNK        -0.4279 
     65 CA         32.2379   28.6646    1.0101 C.3       11 UNK         0.1003 
     66 C          32.1186   27.5967   -0.1216 C.2       11 UNK         0.5709 
     67 N          33.2257   27.1829   -0.7256 N.am      11 UNK        -0.7358 
     68 O          31.0328   27.1518   -0.4793 O.2       11 UNK        -0.4999 
     69 C69        30.9743   28.9301    1.8857 C.3       12 UNK        -0.0954 
     70 S70        30.1361   27.4872    2.6125 S.3       12 UNK        -0.2268 
     71 C71        30.7612   27.4591    4.3247 C.3       12 UNK         0.0203 
     72 H72        34.7853   24.9920    0.6623 H         1 UNK         0.0888 
     73 H73        35.3418   23.3299    0.4735 H         1 UNK         0.0888 
     74 H74        34.8680   24.2707   -0.9442 H         1 UNK         0.0888 
     75 H75        32.7300   25.0616    1.4892 H         1 UNK         0.3017 
     76 H76        30.6891   24.6729    2.0916 H         1 UNK         0.0873 
     77 H77        29.8568   22.4146    2.5537 H         1 UNK         0.0745 
     78 H78        31.0103   21.7017    1.4594 H         1 UNK         0.0745 
     79 H79        30.2908   21.6366    4.9572 H         1 UNK         0.0705 
     80 H80        31.6593   22.2175    5.8741 H         1 UNK         0.0705 
     81 H81        31.8642   24.9870    4.2759 H         1 UNK         0.1334 
     82 H82        28.5434   27.1570    5.8776 H         1 UNK         0.1417 
     83 H83        28.6392   22.8863    6.1838 H         1 UNK         0.1562 
     84 H84        26.9012   25.9226    7.3210 H         1 UNK         0.0748 
     85 H85        26.9306   24.1805    7.3714 H         1 UNK         0.0748 
     86 H86        24.4045   26.7928    4.7800 H         1 UNK         0.0940 
     87 H87        25.6462   27.2901    5.8877 H         1 UNK         0.0940 
     88 H88        27.3481   27.1846    4.0597 H         1 UNK         0.0703 
     89 H89        27.0567   26.0008    2.2821 H         1 UNK         0.3081 
     90 H90        25.6509   24.3900    0.9943 H         1 UNK         0.0719 
     91 H91        23.6194   26.0267   -0.6141 H         1 UNK         0.0809 
     92 H92        24.2250   24.4302   -1.0536 H         1 UNK         0.0809 
     93 H93        23.2722   24.6421    0.4068 H         1 UNK         0.0809 
     94 H94        27.2408   25.2260   -0.2834 H         1 UNK         0.2990 
     95 H95        27.3571   27.3188   -2.8861 H         1 UNK         0.0690 
     96 H96        27.7277   29.3799   -1.6223 H         1 UNK         0.0788 
     97 H97        29.2846   28.7137   -2.0737 H         1 UNK         0.0788 
     98 H98        28.6977   28.5286   -0.4214 H         1 UNK         0.0788 
     99 H99        29.5400   26.3031   -1.2806 H         1 UNK         0.2993 
    100 H100       29.1355   22.9220   -2.2483 H         1 UNK         0.0949 
    101 H101       31.3315   23.0819   -3.3831 H         1 UNK         0.0767 
    102 H102       30.0934   23.8132   -4.3902 H         1 UNK         0.0767 
    103 H103       31.1912   24.8384   -3.4745 H         1 UNK         0.0767 
    104 H104       31.4124   23.8462   -1.1028 H         1 UNK         0.3013 
    105 H105       27.3660   28.7390    1.9973 H         1 UNK         0.3121 
    106 H106       25.7608   31.1408    2.3788 H         1 UNK         0.0774 
    107 H107       28.2620   30.6692    0.6743 H         1 UNK         0.0815 
    108 H108       27.2010   32.0644    0.5893 H         1 UNK         0.0815 
    109 H109       26.5879   30.4855    0.1360 H         1 UNK         0.0815 
    110 H110       28.5194   29.8937    3.9390 H         1 UNK         0.2987 
    111 H111       29.8594   30.5592    5.5620 H         1 UNK         0.0949 
    112 H112       28.1283   33.0604    5.8738 H         1 UNK         0.0806 
    113 H113       27.7675   31.4872    6.5841 H         1 UNK         0.0806 
    114 H114       29.2046   32.3668    7.0738 H         1 UNK         0.0806 
    115 H115       30.2290   31.6838    2.7068 H         1 UNK         0.3010 
    116 H116       32.0852   33.9023    3.0233 H         1 UNK         0.0829 
    117 H117       30.7667   33.6064    0.9430 H         1 UNK         0.0813 
    118 H118       32.4827   33.4880    0.5913 H         1 UNK         0.0813 
    119 H119       31.5039   32.0298    0.6613 H         1 UNK         0.0813 
    120 H120       33.1299   32.6252    4.8448 H         1 UNK         0.3038 
    121 H121       34.8574   31.5993    5.7986 H         1 UNK         0.0769 
    122 H122       36.2557   31.7660    3.0637 H         1 UNK         0.0811 
    123 H123       37.0339   31.3586    4.5922 H         1 UNK         0.0811 
    124 H124       36.3388   32.9488    4.3583 H         1 UNK         0.0811 
    125 H125       36.1140   29.7169    3.2451 H         1 UNK         0.3204 
    126 H126       35.0764   27.2189    4.2722 H         1 UNK         0.0748 
    127 H127       36.3688   26.2382    2.3777 H         1 UNK         0.0771 
    128 H128       36.6492   27.8406    1.7101 H         1 UNK         0.0771 
    129 H129       37.3482   27.3910    3.2666 H         1 UNK         0.0771 
    130 H130       33.9304   29.5069    1.9158 H         1 UNK         0.2980 
    131 H131       32.3692   29.5843    0.4394 H         1 UNK         0.0545 
    132 H132       33.1528   26.5228   -1.4812 H         1 UNK         0.3459 
    133 H133       34.1226   27.5563   -0.4615 H         1 UNK         0.3459 
    134 H134       31.2222   29.6224    2.6895 H         1 UNK         0.0616 
    135 H135       30.2315   29.4456    1.2776 H         1 UNK         0.0616 
    136 H136       31.8493   27.4782    4.3389 H         1 UNK         0.0634 
    137 H137       30.4255   28.3481    4.8578 H         1 UNK         0.0634 
@<TRIPOS>BOND
     1    1    2 1    
     2    1   72 1    
     3    1   73 1    
     4    1   74 1    
     5    2    3 2    
     6    2    4 am   BACKBONE|DICT|INTERRES
     7    4    5 1    
     8    4   75 1    
     9    5    6 1    
    10    5   35 1    
    11    5   76 1    
    12    6    7 1    
    13    6   77 1    
    14    6   78 1    
    15    7    8 1    
    16    8    9 1    
    17    8   79 1    
    18    8   80 1    
    19    9   10 ar   
    20    9   14 ar   
    21   10   11 ar   
    22   10   81 1    
    23   11   12 ar   
    24   11   71 1    
    25   12   13 ar   
    26   12   82 1    
    27   13   14 ar   
    28   13   15 1    
    29   14   83 1    
    30   15   16 1    
    31   15   84 1    
    32   15   85 1    
    33   16   17 1    
    34   17   18 1    
    35   17   86 1    
    36   17   87 1    
    37   18   19 1    
    38   18   37 1    
    39   18   88 1    
    40   19   20 am   BACKBONE|DICT|INTERRES
    41   19   89 1    
    42   20   21 2    
    43   20   22 1    
    44   22   23 1    
    45   22   24 1    
    46   22   90 1    
    47   23   91 1    
    48   23   92 1    
    49   23   93 1    
    50   24   25 am   BACKBONE|DICT|INTERRES
    51   24   94 1    
    52   25   26 2    
    53   25   27 1    
    54   27   28 1    
    55   27   29 1    
    56   27   95 1    
    57   28   96 1    
    58   28   97 1    
    59   28   98 1    
    60   29   30 am   BACKBONE|DICT|INTERRES
    61   29   99 1    
    62   30   31 2    
    63   30   32 1    
    64   32   33 1    
    65   32   34 1    
    66   32  100 1    
    67   33  101 1    
    68   33  102 1    
    69   33  103 1    
    70   34   35 am   BACKBONE|DICT|INTERRES
    71   34  104 1    
    72   35   36 2    
    73   37   38 2    
    74   37   39 am   BACKBONE|DICT|INTERRES
    75   39   40 1    
    76   39  105 1    
    77   40   41 1    
    78   40   42 1    
    79   40  106 1    
    80   41  107 1    
    81   41  108 1    
    82   41  109 1    
    83   42   43 2    
    84   42   44 am   BACKBONE|DICT|INTERRES
    85   44   45 1    
    86   44  110 1    
    87   45   46 1    
    88   45   47 1    
    89   45  111 1    
    90   46  112 1    
    91   46  113 1    
    92   46  114 1    
    93   47   48 2    
    94   47   49 am   BACKBONE|DICT|INTERRES
    95   49   50 1    
    96   49  115 1    
    97   50   51 1    
    98   50   52 1    
    99   50  116 1    
   100   51  117 1    
   101   51  118 1    
   102   51  119 1    
   103   52   53 2    
   104   52   54 am   BACKBONE|DICT|INTERRES
   105   54   55 1    
   106   54  120 1    
   107   55   56 1    
   108   55   57 1    
   109   55  121 1    
   110   56  122 1    
   111   56  123 1    
   112   56  124 1    
   113   57   58 2    
   114   57   59 am   BACKBONE|DICT|INTERRES
   115   59   60 1    
   116   59  125 1    
   117   60   61 1    
   118   60   62 1    
   119   60  126 1    
   120   61  127 1    
   121   61  128 1    
   122   61  129 1    
   123   62   63 2    
   124   62   64 am   BACKBONE|DICT|INTERRES
   125   64   65 1    
   126   64  130 1    
   127   65   66 1    
   128   65   69 1    
   129   65  131 1    
   130   66   67 am   BACKBONE|DICT|INTERRES
   131   66   68 2    
   132   67  132 1    
   133   67  133 1    
   134   69   70 1    
   135   69  134 1    
   136   69  135 1    
   137   70   71 1    
   138   71  136 1    
   139   71  137 1    
@<TRIPOS>SUBSTRUCTURE
     1 UNK         1 GROUP             0       ****    0 ROOT    
