@<TRIPOS>MOLECULE
3R136
137   139    1
SMALL
USER_CHARGES


@<TRIPOS>ATOM
      1 CA         29.7103   21.7100    4.2351 C.3       0 UNK        -0.1979 
      2 C          28.9941   21.3122    2.9552 C.2       0 UNK         0.4864 
      3 O          27.8366   20.8945    3.0074 O.2       0 UNK        -0.5359 
      4 N          29.6749   21.4327    1.8064 N.am      1 UNK        -0.4318 
      5 CA         29.1553   21.0511    0.4842 C.3       1 UNK         0.0824 
      6 C6         30.2705   20.9094   -0.5851 C.3       12 UNK        -0.0944 
      7 S7         31.6854   19.9024   -0.0086 S.3       12 UNK        -0.2672 
      8 C8         33.1055   21.0326   -0.2079 C.3       12 UNK         0.0333 
      9 C9         32.9001   22.3734    0.4867 C.ar      12 UNK        -0.0807 
     10 C10        32.9018   22.4589    1.8830 C.ar      12 UNK        -0.0894 
     11 C11        32.6758   23.6864    2.5125 C.ar      12 UNK        -0.0804 
     12 C12        32.4541   24.8244    1.7347 C.ar      12 UNK        -0.0824 
     13 C13        32.4988   24.7700    0.3382 C.ar      12 UNK        -0.0762 
     14 C14        32.7125   23.5322   -0.2756 C.ar      12 UNK        -0.0782 
     15 C15        32.3202   26.0159   -0.5340 C.3       12 UNK         0.0230 
     16 S16        32.9908   27.5619    0.1872 S.3       12 UNK        -0.2608 
     17 C17        31.7488   28.2017    1.3792 C.3       12 UNK        -0.0989 
     18 CA         30.2660   27.7789    1.1869 C.3       5 UNK         0.0716 
     19 N          29.4930   27.8719    2.4264 N.am      5 UNK        -0.4135 
     20 C          29.2331   28.9865    3.1267 C.2       4 UNK         0.5031 
     21 O          29.6955   30.0956    2.8496 O.2       4 UNK        -0.5229 
     22 CA         28.2662   28.8344    4.3209 C.3       4 UNK         0.0329 
     23 CB         27.6169   30.1708    4.7364 C.3       4 UNK        -0.2001 
     24 N          27.2334   27.8088    4.1083 N.am      4 UNK        -0.4303 
     25 C          26.3649   27.7434    3.0879 C.2       3 UNK         0.5044 
     26 O          26.2895   28.5780    2.1836 O.2       3 UNK        -0.5152 
     27 CA         25.4767   26.4912    3.0284 C.3       3 UNK         0.0319 
     28 CB         23.9894   26.8805    3.0240 C.3       3 UNK        -0.2001 
     29 N          25.7638   25.6619    1.8520 N.am      3 UNK        -0.4354 
     30 C          26.9538   25.1297    1.5397 C.2       2 UNK         0.4964 
     31 O          27.9920   25.3233    2.1810 O.2       2 UNK        -0.5047 
     32 CA         27.0024   24.2475    0.2878 C.3       2 UNK         0.0288 
     33 CB         27.3230   25.0713   -0.9703 C.3       2 UNK        -0.2113 
     34 N          28.0337   23.2399    0.4962 N.am      2 UNK        -0.4145 
     35 C          28.0427   22.0013   -0.0117 C.2       1 UNK         0.5006 
     36 O          27.2143   21.5906   -0.8266 O.2       1 UNK        -0.5103 
     37 C          29.5557   28.5167    0.0280 C.2       5 UNK         0.5055 
     38 O          30.1855   29.2871   -0.6956 O.2       5 UNK        -0.5220 
     39 N          28.2388   28.2910   -0.0996 N.am      6 UNK        -0.4450 
     40 CA         27.3175   28.9394   -1.0428 C.3       6 UNK         0.0367 
     41 CB         27.6673   28.5879   -2.5057 C.3       6 UNK        -0.1929 
     42 C          27.2212   30.4556   -0.7875 C.2       6 UNK         0.5070 
     43 O          27.3307   31.2542   -1.7190 O.2       6 UNK        -0.5237 
     44 N          27.0405   30.8102    0.4931 N.am      7 UNK        -0.4739 
     45 CA         26.9494   32.1682    1.0448 C.3       7 UNK         0.0276 
     46 CB         25.6963   32.8947    0.5109 C.3       7 UNK        -0.1927 
     47 C          28.2310   33.0172    0.8980 C.2       7 UNK         0.5013 
     48 O          28.1583   34.2390    1.0409 O.2       7 UNK        -0.5193 
     49 N          29.3850   32.3776    0.6537 N.am      8 UNK        -0.4253 
     50 CA         30.6960   33.0360    0.5948 C.3       8 UNK         0.0242 
     51 CB         31.6706   32.1747   -0.2224 C.3       8 UNK        -0.2000 
     52 C          31.2807   33.3524    1.9853 C.2       8 UNK         0.4948 
     53 O          32.2265   34.1372    2.0636 O.2       8 UNK        -0.5275 
     54 N          30.7099   32.7503    3.0400 N.am      9 UNK        -0.4246 
     55 CA         31.0659   32.8730    4.4562 C.3       9 UNK         0.0261 
     56 CB         30.9751   34.3339    4.9496 C.3       9 UNK        -0.1959 
     57 C          32.4090   32.1941    4.7694 C.2       9 UNK         0.5033 
     58 O          33.3039   32.8189    5.3433 O.2       9 UNK        -0.5390 
     59 N          32.5075   30.9114    4.4027 N.am      10 UNK        -0.4215 
     60 CA         33.5978   30.0108    4.7767 C.3       10 UNK         0.0240 
     61 CB         34.4769   29.7178    3.5487 C.3       10 UNK        -0.1982 
     62 C          33.0042   28.7312    5.3848 C.2       10 UNK         0.4970 
     63 O          31.8047   28.4842    5.2370 O.2       10 UNK        -0.4916 
     64 N          33.8558   27.9663    6.0805 N.am      11 UNK        -0.4279 
     65 CA         33.5094   26.7875    6.9014 C.3       11 UNK         0.1003 
     66 C          32.7456   27.1265    8.2200 C.2       11 UNK         0.5709 
     67 N          32.6884   28.3810    8.6526 N.am      11 UNK        -0.7358 
     68 O          32.2235   26.2355    8.8863 O.2       11 UNK        -0.4999 
     69 C69        32.8263   25.6328    6.1106 C.3       12 UNK        -0.0954 
     70 S70        33.7798   25.0638    4.6669 S.3       12 UNK        -0.2268 
     71 C71        32.6352   23.7956    4.0302 C.3       12 UNK         0.0203 
     72 H72        29.3600   21.1041    5.0704 H         1 UNK         0.0888 
     73 H73        30.7856   21.5626    4.1478 H         1 UNK         0.0888 
     74 H74        29.5133   22.7563    4.4668 H         1 UNK         0.0888 
     75 H75        30.6296   21.7655    1.8152 H         1 UNK         0.3017 
     76 H76        28.6922   20.0683    0.5985 H         1 UNK         0.0873 
     77 H77        29.8670   20.4290   -1.4785 H         1 UNK         0.0745 
     78 H78        30.6168   21.8889   -0.9142 H         1 UNK         0.0745 
     79 H79        33.2931   21.1737   -1.2735 H         1 UNK         0.0705 
     80 H80        33.9976   20.5518    0.1957 H         1 UNK         0.0705 
     81 H81        33.0646   21.5673    2.4738 H         1 UNK         0.1334 
     82 H82        32.2720   25.7561    2.2415 H         1 UNK         0.1417 
     83 H83        32.7305   23.4690   -1.3555 H         1 UNK         0.1562 
     84 H84        31.2807   26.1285   -0.8377 H         1 UNK         0.0748 
     85 H85        32.8669   25.8623   -1.4657 H         1 UNK         0.0748 
     86 H86        31.8311   29.2879    1.4000 H         1 UNK         0.0940 
     87 H87        32.0791   27.8960    2.3719 H         1 UNK         0.0940 
     88 H88        30.2244   26.7169    0.9556 H         1 UNK         0.0703 
     89 H89        29.0401   27.0097    2.7132 H         1 UNK         0.3081 
     90 H90        28.8794   28.4907    5.1555 H         1 UNK         0.0719 
     91 H91        26.9866   30.0454    5.6166 H         1 UNK         0.0809 
     92 H92        26.9977   30.5834    3.9410 H         1 UNK         0.0809 
     93 H93        28.3706   30.9168    4.9867 H         1 UNK         0.0809 
     94 H94        27.2323   27.0514    4.7780 H         1 UNK         0.2990 
     95 H95        25.6646   25.8811    3.9144 H         1 UNK         0.0690 
     96 H96        23.3469   26.0004    3.0558 H         1 UNK         0.0788 
     97 H97        23.7256   27.4579    2.1367 H         1 UNK         0.0788 
     98 H98        23.7432   27.4912    3.8939 H         1 UNK         0.0788 
     99 H99        24.9792   25.4751    1.2441 H         1 UNK         0.2993 
    100 H100       26.0342   23.7555    0.1694 H         1 UNK         0.0949 
    101 H101       28.3034   25.5440   -0.9036 H         1 UNK         0.0767 
    102 H102       27.3182   24.4452   -1.8627 H         1 UNK         0.0767 
    103 H103       26.5822   25.8566   -1.1241 H         1 UNK         0.0767 
    104 H104       28.7199   23.4888    1.1977 H         1 UNK         0.3013 
    105 H105       27.7912   27.7246    0.6078 H         1 UNK         0.3121 
    106 H106       26.3270   28.5318   -0.8342 H         1 UNK         0.0774 
    107 H107       26.9051   28.9671   -3.1873 H         1 UNK         0.0815 
    108 H108       28.6185   29.0231   -2.8133 H         1 UNK         0.0815 
    109 H109       27.7287   27.5109   -2.6562 H         1 UNK         0.0815 
    110 H110       26.9211   30.0568    1.1683 H         1 UNK         0.2987 
    111 H111       26.8122   32.0412    2.1186 H         1 UNK         0.0949 
    112 H112       25.7854   33.1302   -0.5499 H         1 UNK         0.0806 
    113 H113       24.7994   32.2906    0.6473 H         1 UNK         0.0806 
    114 H114       25.5326   33.8353    1.0382 H         1 UNK         0.0806 
    115 H115       29.3704   31.3713    0.5492 H         1 UNK         0.3010 
    116 H116       30.5777   33.9878    0.0722 H         1 UNK         0.0829 
    117 H117       31.2721   31.9521   -1.2125 H         1 UNK         0.0813 
    118 H118       32.6222   32.6888   -0.3628 H         1 UNK         0.0813 
    119 H119       31.8847   31.2289    0.2718 H         1 UNK         0.0813 
    120 H120       30.0254   32.0273    2.8357 H         1 UNK         0.3038 
    121 H121       30.3114   32.3078    5.0040 H         1 UNK         0.0769 
    122 H122       31.7424   34.9669    4.5034 H         1 UNK         0.0811 
    123 H123       30.0034   34.7706    4.7194 H         1 UNK         0.0811 
    124 H124       31.1063   34.3854    6.0311 H         1 UNK         0.0811 
    125 H125       31.6969   30.4599    3.9930 H         1 UNK         0.3204 
    126 H126       34.2191   30.4742    5.5462 H         1 UNK         0.0748 
    127 H127       35.2963   29.0430    3.7992 H         1 UNK         0.0771 
    128 H128       33.9147   29.2577    2.7395 H         1 UNK         0.0771 
    129 H129       34.9220   30.6340    3.1600 H         1 UNK         0.0771 
    130 H130       34.8228   28.2515    6.1360 H         1 UNK         0.2980 
    131 H131       34.4686   26.4007    7.2468 H         1 UNK         0.0545 
    132 H132       33.1260   29.1252    8.1352 H         1 UNK         0.3459 
    133 H133       32.2028   28.5815    9.5127 H         1 UNK         0.3459 
    134 H134       32.6801   24.7654    6.7568 H         1 UNK         0.0616 
    135 H135       31.8315   25.9337    5.7793 H         1 UNK         0.0616 
    136 H136       31.6143   24.0435    4.3218 H         1 UNK         0.0634 
    137 H137       32.8755   22.8419    4.5021 H         1 UNK         0.0634 
@<TRIPOS>BOND
     1    1    2 1    
     2    1   72 1    
     3    1   73 1    
     4    1   74 1    
     5    2    3 2    
     6    2    4 am   BACKBONE|DICT|INTERRES
     7    4    5 1    
     8    4   75 1    
     9    5    6 1    
    10    5   35 1    
    11    5   76 1    
    12    6    7 1    
    13    6   77 1    
    14    6   78 1    
    15    7    8 1    
    16    8    9 1    
    17    8   79 1    
    18    8   80 1    
    19    9   10 ar   
    20    9   14 ar   
    21   10   11 ar   
    22   10   81 1    
    23   11   12 ar   
    24   11   71 1    
    25   12   13 ar   
    26   12   82 1    
    27   13   14 ar   
    28   13   15 1    
    29   14   83 1    
    30   15   16 1    
    31   15   84 1    
    32   15   85 1    
    33   16   17 1    
    34   17   18 1    
    35   17   86 1    
    36   17   87 1    
    37   18   19 1    
    38   18   37 1    
    39   18   88 1    
    40   19   20 am   BACKBONE|DICT|INTERRES
    41   19   89 1    
    42   20   21 2    
    43   20   22 1    
    44   22   23 1    
    45   22   24 1    
    46   22   90 1    
    47   23   91 1    
    48   23   92 1    
    49   23   93 1    
    50   24   25 am   BACKBONE|DICT|INTERRES
    51   24   94 1    
    52   25   26 2    
    53   25   27 1    
    54   27   28 1    
    55   27   29 1    
    56   27   95 1    
    57   28   96 1    
    58   28   97 1    
    59   28   98 1    
    60   29   30 am   BACKBONE|DICT|INTERRES
    61   29   99 1    
    62   30   31 2    
    63   30   32 1    
    64   32   33 1    
    65   32   34 1    
    66   32  100 1    
    67   33  101 1    
    68   33  102 1    
    69   33  103 1    
    70   34   35 am   BACKBONE|DICT|INTERRES
    71   34  104 1    
    72   35   36 2    
    73   37   38 2    
    74   37   39 am   BACKBONE|DICT|INTERRES
    75   39   40 1    
    76   39  105 1    
    77   40   41 1    
    78   40   42 1    
    79   40  106 1    
    80   41  107 1    
    81   41  108 1    
    82   41  109 1    
    83   42   43 2    
    84   42   44 am   BACKBONE|DICT|INTERRES
    85   44   45 1    
    86   44  110 1    
    87   45   46 1    
    88   45   47 1    
    89   45  111 1    
    90   46  112 1    
    91   46  113 1    
    92   46  114 1    
    93   47   48 2    
    94   47   49 am   BACKBONE|DICT|INTERRES
    95   49   50 1    
    96   49  115 1    
    97   50   51 1    
    98   50   52 1    
    99   50  116 1    
   100   51  117 1    
   101   51  118 1    
   102   51  119 1    
   103   52   53 2    
   104   52   54 am   BACKBONE|DICT|INTERRES
   105   54   55 1    
   106   54  120 1    
   107   55   56 1    
   108   55   57 1    
   109   55  121 1    
   110   56  122 1    
   111   56  123 1    
   112   56  124 1    
   113   57   58 2    
   114   57   59 am   BACKBONE|DICT|INTERRES
   115   59   60 1    
   116   59  125 1    
   117   60   61 1    
   118   60   62 1    
   119   60  126 1    
   120   61  127 1    
   121   61  128 1    
   122   61  129 1    
   123   62   63 2    
   124   62   64 am   BACKBONE|DICT|INTERRES
   125   64   65 1    
   126   64  130 1    
   127   65   66 1    
   128   65   69 1    
   129   65  131 1    
   130   66   67 am   BACKBONE|DICT|INTERRES
   131   66   68 2    
   132   67  132 1    
   133   67  133 1    
   134   69   70 1    
   135   69  134 1    
   136   69  135 1    
   137   70   71 1    
   138   71  136 1    
   139   71  137 1    
@<TRIPOS>SUBSTRUCTURE
     1 UNK         1 GROUP             0       ****    0 ROOT    
