@<TRIPOS>MOLECULE
3R136
137   139    1
SMALL
USER_CHARGES


@<TRIPOS>ATOM
      1 CA         24.8620   20.6167    2.4987 C.3       0 UNK        -0.1979 
      2 C          25.4696   21.6101    1.5200 C.2       0 UNK         0.4864 
      3 O          24.7460   22.1960    0.7127 O.2       0 UNK        -0.5359 
      4 N          26.7923   21.8219    1.5947 N.am      1 UNK        -0.4318 
      5 CA         27.5562   22.7225    0.7183 C.3       1 UNK         0.0824 
      6 C6         29.0856   22.5640    0.8900 C.3       12 UNK        -0.0944 
      7 S7         29.6854   22.8349    2.5947 S.3       12 UNK        -0.2672 
      8 C8         31.4578   22.4626    2.3999 C.3       12 UNK         0.0333 
      9 C9         32.2786   23.7140    2.1162 C.ar      12 UNK        -0.0807 
     10 C10        33.0331   24.3020    3.1370 C.ar      12 UNK        -0.0894 
     11 C11        33.8165   25.4315    2.8812 C.ar      12 UNK        -0.0804 
     12 C12        33.8227   25.9897    1.5995 C.ar      12 UNK        -0.0824 
     13 C13        33.0690   25.4148    0.5719 C.ar      12 UNK        -0.0762 
     14 C14        32.3103   24.2697    0.8327 C.ar      12 UNK        -0.0782 
     15 C15        33.0942   26.0214   -0.8237 C.3       12 UNK         0.0230 
     16 S16        31.9926   27.4645   -0.9548 S.3       12 UNK        -0.2608 
     17 C17        30.3456   26.6770   -0.9625 C.3       12 UNK        -0.0989 
     18 CA         29.2342   27.6465   -1.4455 C.3       5 UNK         0.0716 
     19 N          28.0734   26.9028   -1.9305 N.am      5 UNK        -0.4135 
     20 C          27.2825   27.2789   -2.9419 C.2       4 UNK         0.5031 
     21 O          27.4617   28.2987   -3.6108 O.2       4 UNK        -0.5229 
     22 CA         26.0998   26.3610   -3.2820 C.3       4 UNK         0.0329 
     23 CB         26.5877   25.0837   -3.9881 C.3       4 UNK        -0.2001 
     24 N          25.3253   25.9922   -2.0934 N.am      4 UNK        -0.4303 
     25 C          23.9988   26.1508   -1.9672 C.2       3 UNK         0.5044 
     26 O          23.2889   26.6715   -2.8293 O.2       3 UNK        -0.5152 
     27 CA         23.3224   25.6230   -0.6848 C.3       3 UNK         0.0319 
     28 CB         22.5607   24.3206   -0.9802 C.3       3 UNK        -0.2001 
     29 N          24.2553   25.3827    0.4165 N.am      3 UNK        -0.4354 
     30 C          24.8350   26.3491    1.1443 C.2       2 UNK         0.4964 
     31 O          24.5494   27.5419    1.0351 O.2       2 UNK        -0.5047 
     32 CA         25.9142   25.9253    2.1620 C.3       2 UNK         0.0288 
     33 CB         25.3345   25.9510    3.5867 C.3       2 UNK        -0.2113 
     34 N          26.5053   24.6041    1.9201 N.am      2 UNK        -0.4145 
     35 C          27.1279   24.2024    0.8008 C.2       1 UNK         0.5006 
     36 O          27.3184   24.9298   -0.1746 O.2       1 UNK        -0.5103 
     37 C          28.7961   28.5940   -0.3149 C.2       5 UNK         0.5055 
     38 O          27.8177   28.3161    0.3829 O.2       5 UNK        -0.5220 
     39 N          29.5742   29.6604   -0.0942 N.am      6 UNK        -0.4450 
     40 CA         29.4573   30.5617    1.0550 C.3       6 UNK         0.0367 
     41 CB         30.0855   31.9197    0.6927 C.3       6 UNK        -0.1929 
     42 C          30.0898   29.9275    2.3103 C.2       6 UNK         0.5070 
     43 O          31.0446   30.4724    2.8687 O.2       6 UNK        -0.5237 
     44 N          29.5632   28.7614    2.7072 N.am      7 UNK        -0.4739 
     45 CA         30.0267   27.9527    3.8352 C.3       7 UNK         0.0276 
     46 CB         29.2041   26.6580    3.9048 C.3       7 UNK        -0.1927 
     47 C          29.9605   28.7203    5.1666 C.2       7 UNK         0.5013 
     48 O          29.0624   29.5439    5.3600 O.2       7 UNK        -0.5193 
     49 N          30.9448   28.4642    6.0362 N.am      8 UNK        -0.4253 
     50 CA         31.2738   29.1611    7.2874 C.3       8 UNK         0.0242 
     51 CB         30.1046   29.1474    8.2924 C.3       8 UNK        -0.2000 
     52 C          31.8209   30.5857    7.0744 C.2       8 UNK         0.4948 
     53 O          32.8043   30.9450    7.7210 O.2       8 UNK        -0.5275 
     54 N          31.2030   31.3606    6.1725 N.am      9 UNK        -0.4246 
     55 CA         31.5899   32.7279    5.8195 C.3       9 UNK         0.0261 
     56 CB         30.4767   33.3833    4.9848 C.3       9 UNK        -0.1959 
     57 C          32.9445   32.7942    5.0941 C.2       9 UNK         0.5033 
     58 O          33.8393   33.5089    5.5490 O.2       9 UNK        -0.5390 
     59 N          33.0831   32.0408    3.9938 N.am      10 UNK        -0.4215 
     60 CA         34.3178   31.9647    3.2026 C.3       10 UNK         0.0240 
     61 CB         33.9798   31.5162    1.7704 C.3       10 UNK        -0.1982 
     62 C          35.3768   31.0324    3.8163 C.2       10 UNK         0.4970 
     63 O          36.5404   31.1086    3.4207 O.2       10 UNK        -0.4916 
     64 N          34.9625   30.1628    4.7454 N.am      11 UNK        -0.4279 
     65 CA         35.8117   29.1509    5.3938 C.3       11 UNK         0.1003 
     66 C          36.8184   29.7168    6.4365 C.2       11 UNK         0.5709 
     67 N          36.6989   30.9671    6.8673 N.am      11 UNK        -0.7358 
     68 O          37.7304   29.0077    6.8558 O.2       11 UNK        -0.4999 
     69 C69        34.9762   27.9936    6.0039 C.3       12 UNK        -0.0954 
     70 S70        33.7227   27.3254    4.8614 S.3       12 UNK        -0.2268 
     71 C71        34.6607   26.0462    3.9860 C.3       12 UNK         0.0203 
     72 H72        24.3732   19.8084    1.9556 H         1 UNK         0.0888 
     73 H73        24.1154   21.1111    3.1195 H         1 UNK         0.0888 
     74 H74        25.6137   20.1785    3.1549 H         1 UNK         0.0888 
     75 H75        27.3386   21.3300    2.2886 H         1 UNK         0.3017 
     76 H76        27.3219   22.4148   -0.3036 H         1 UNK         0.0873 
     77 H77        29.3760   21.5574    0.5848 H         1 UNK         0.0745 
     78 H78        29.6076   23.2398    0.2121 H         1 UNK         0.0745 
     79 H79        31.8094   21.9846    3.3156 H         1 UNK         0.0705 
     80 H80        31.6066   21.7297    1.6056 H         1 UNK         0.0705 
     81 H81        33.0198   23.8753    4.1308 H         1 UNK         0.1334 
     82 H82        34.4156   26.8725    1.4006 H         1 UNK         0.1417 
     83 H83        31.7475   23.8115    0.0328 H         1 UNK         0.1562 
     84 H84        32.8230   25.2800   -1.5770 H         1 UNK         0.0748 
     85 H85        34.1114   26.3355   -1.0628 H         1 UNK         0.0748 
     86 H86        30.1255   26.2691    0.0272 H         1 UNK         0.0940 
     87 H87        30.3993   25.8179   -1.6335 H         1 UNK         0.0940 
     88 H88        29.6279   28.2489   -2.2674 H         1 UNK         0.0703 
     89 H89        27.8073   26.1016   -1.3593 H         1 UNK         0.3081 
     90 H90        25.4725   26.9106   -3.9873 H         1 UNK         0.0719 
     91 H91        27.2056   24.4678   -3.3330 H         1 UNK         0.0809 
     92 H92        25.7482   24.4745   -4.3233 H         1 UNK         0.0809 
     93 H93        27.1836   25.3263   -4.8694 H         1 UNK         0.0809 
     94 H94        25.8432   25.5887   -1.3196 H         1 UNK         0.2990 
     95 H95        22.5979   26.3750   -0.3644 H         1 UNK         0.0690 
     96 H96        22.0282   23.9629   -0.0984 H         1 UNK         0.0788 
     97 H97        23.2332   23.5269   -1.3095 H         1 UNK         0.0788 
     98 H98        21.8202   24.4693   -1.7676 H         1 UNK         0.0788 
     99 H99        24.5196   24.4177    0.5824 H         1 UNK         0.2993 
    100 H100       26.7191   26.6586    2.0983 H         1 UNK         0.0949 
    101 H101       24.9587   26.9446    3.8364 H         1 UNK         0.0767 
    102 H102       24.5041   25.2518    3.6945 H         1 UNK         0.0767 
    103 H103       26.0858   25.6932    4.3332 H         1 UNK         0.0767 
    104 H104       26.3991   23.9239    2.6585 H         1 UNK         0.3013 
    105 H105       30.3986   29.7740   -0.6677 H         1 UNK         0.3121 
    106 H106       28.4010   30.7314    1.2743 H         1 UNK         0.0774 
    107 H107       31.1360   31.8175    0.4220 H         1 UNK         0.0815 
    108 H108       30.0284   32.6155    1.5305 H         1 UNK         0.0815 
    109 H109       29.5675   32.3831   -0.1470 H         1 UNK         0.0815 
    110 H110       28.7797   28.4038    2.1717 H         1 UNK         0.2987 
    111 H111       31.0657   27.6913    3.6270 H         1 UNK         0.0949 
    112 H112       29.2459   26.1050    2.9655 H         1 UNK         0.0806 
    113 H113       29.5824   25.9953    4.6843 H         1 UNK         0.0806 
    114 H114       28.1590   26.8658    4.1317 H         1 UNK         0.0806 
    115 H115       31.6433   27.7892    5.7476 H         1 UNK         0.3010 
    116 H116       32.0845   28.5820    7.7328 H         1 UNK         0.0829 
    117 H117       29.7430   28.1338    8.4664 H         1 UNK         0.0813 
    118 H118       30.4200   29.5493    9.2560 H         1 UNK         0.0813 
    119 H119       29.2621   29.7514    7.9546 H         1 UNK         0.0813 
    120 H120       30.3974   30.9664    5.6948 H         1 UNK         0.3038 
    121 H121       31.6874   33.2943    6.7485 H         1 UNK         0.0769 
    122 H122       30.2768   32.8311    4.0661 H         1 UNK         0.0811 
    123 H123       30.7482   34.4017    4.7023 H         1 UNK         0.0811 
    124 H124       29.5441   33.4415    5.5471 H         1 UNK         0.0811 
    125 H125       32.2946   31.4788    3.6654 H         1 UNK         0.3204 
    126 H126       34.7591   32.9632    3.1455 H         1 UNK         0.0748 
    127 H127       34.8766   31.4689    1.1502 H         1 UNK         0.0771 
    128 H128       33.5192   30.5265    1.7530 H         1 UNK         0.0771 
    129 H129       33.2966   32.2176    1.2923 H         1 UNK         0.0771 
    130 H130       33.9915   30.1695    5.0143 H         1 UNK         0.2980 
    131 H131       36.4272   28.7116    4.6063 H         1 UNK         0.0545 
    132 H132       37.3590   31.3230    7.5399 H         1 UNK         0.3459 
    133 H133       35.9462   31.5512    6.5372 H         1 UNK         0.3459 
    134 H134       35.6254   27.1791    6.3309 H         1 UNK         0.0616 
    135 H135       34.4530   28.3407    6.8966 H         1 UNK         0.0616 
    136 H136       35.5682   26.4832    3.5664 H         1 UNK         0.0634 
    137 H137       34.9801   25.2794    4.6935 H         1 UNK         0.0634 
@<TRIPOS>BOND
     1    1    2 1    
     2    1   72 1    
     3    1   73 1    
     4    1   74 1    
     5    2    3 2    
     6    2    4 am   BACKBONE|DICT|INTERRES
     7    4    5 1    
     8    4   75 1    
     9    5    6 1    
    10    5   35 1    
    11    5   76 1    
    12    6    7 1    
    13    6   77 1    
    14    6   78 1    
    15    7    8 1    
    16    8    9 1    
    17    8   79 1    
    18    8   80 1    
    19    9   10 ar   
    20    9   14 ar   
    21   10   11 ar   
    22   10   81 1    
    23   11   12 ar   
    24   11   71 1    
    25   12   13 ar   
    26   12   82 1    
    27   13   14 ar   
    28   13   15 1    
    29   14   83 1    
    30   15   16 1    
    31   15   84 1    
    32   15   85 1    
    33   16   17 1    
    34   17   18 1    
    35   17   86 1    
    36   17   87 1    
    37   18   19 1    
    38   18   37 1    
    39   18   88 1    
    40   19   20 am   BACKBONE|DICT|INTERRES
    41   19   89 1    
    42   20   21 2    
    43   20   22 1    
    44   22   23 1    
    45   22   24 1    
    46   22   90 1    
    47   23   91 1    
    48   23   92 1    
    49   23   93 1    
    50   24   25 am   BACKBONE|DICT|INTERRES
    51   24   94 1    
    52   25   26 2    
    53   25   27 1    
    54   27   28 1    
    55   27   29 1    
    56   27   95 1    
    57   28   96 1    
    58   28   97 1    
    59   28   98 1    
    60   29   30 am   BACKBONE|DICT|INTERRES
    61   29   99 1    
    62   30   31 2    
    63   30   32 1    
    64   32   33 1    
    65   32   34 1    
    66   32  100 1    
    67   33  101 1    
    68   33  102 1    
    69   33  103 1    
    70   34   35 am   BACKBONE|DICT|INTERRES
    71   34  104 1    
    72   35   36 2    
    73   37   38 2    
    74   37   39 am   BACKBONE|DICT|INTERRES
    75   39   40 1    
    76   39  105 1    
    77   40   41 1    
    78   40   42 1    
    79   40  106 1    
    80   41  107 1    
    81   41  108 1    
    82   41  109 1    
    83   42   43 2    
    84   42   44 am   BACKBONE|DICT|INTERRES
    85   44   45 1    
    86   44  110 1    
    87   45   46 1    
    88   45   47 1    
    89   45  111 1    
    90   46  112 1    
    91   46  113 1    
    92   46  114 1    
    93   47   48 2    
    94   47   49 am   BACKBONE|DICT|INTERRES
    95   49   50 1    
    96   49  115 1    
    97   50   51 1    
    98   50   52 1    
    99   50  116 1    
   100   51  117 1    
   101   51  118 1    
   102   51  119 1    
   103   52   53 2    
   104   52   54 am   BACKBONE|DICT|INTERRES
   105   54   55 1    
   106   54  120 1    
   107   55   56 1    
   108   55   57 1    
   109   55  121 1    
   110   56  122 1    
   111   56  123 1    
   112   56  124 1    
   113   57   58 2    
   114   57   59 am   BACKBONE|DICT|INTERRES
   115   59   60 1    
   116   59  125 1    
   117   60   61 1    
   118   60   62 1    
   119   60  126 1    
   120   61  127 1    
   121   61  128 1    
   122   61  129 1    
   123   62   63 2    
   124   62   64 am   BACKBONE|DICT|INTERRES
   125   64   65 1    
   126   64  130 1    
   127   65   66 1    
   128   65   69 1    
   129   65  131 1    
   130   66   67 am   BACKBONE|DICT|INTERRES
   131   66   68 2    
   132   67  132 1    
   133   67  133 1    
   134   69   70 1    
   135   69  134 1    
   136   69  135 1    
   137   70   71 1    
   138   71  136 1    
   139   71  137 1    
@<TRIPOS>SUBSTRUCTURE
     1 UNK         1 GROUP             0       ****    0 ROOT    
