@<TRIPOS>MOLECULE
3R136
137   139    1
SMALL
USER_CHARGES


@<TRIPOS>ATOM
      1 CA         27.9641   25.1560    6.3542 C.3       0 UNK        -0.1979 
      2 C          27.8896   24.2080    5.1672 C.2       0 UNK         0.4864 
      3 O          27.4100   23.0844    5.3252 O.2       0 UNK        -0.5359 
      4 N          28.3589   24.6390    3.9864 N.am      1 UNK        -0.4318 
      5 CA         28.3158   23.8494    2.7501 C.3       1 UNK         0.0824 
      6 C6         29.2955   24.3830    1.6758 C.3       12 UNK        -0.0944 
      7 S7         31.0190   24.0261    2.1544 S.3       12 UNK        -0.2672 
      8 C8         31.8733   24.0159    0.5472 C.3       12 UNK         0.0333 
      9 C9         32.3349   25.4112    0.1569 C.ar      12 UNK        -0.0807 
     10 C10        33.4478   25.9716    0.7896 C.ar      12 UNK        -0.0894 
     11 C11        33.8825   27.2568    0.4575 C.ar      12 UNK        -0.0804 
     12 C12        33.2111   27.9757   -0.5339 C.ar      12 UNK        -0.0824 
     13 C13        32.0915   27.4299   -1.1689 C.ar      12 UNK        -0.0762 
     14 C14        31.6592   26.1438   -0.8238 C.ar      12 UNK        -0.0782 
     15 C15        31.3331   28.2467   -2.2058 C.3       12 UNK         0.0230 
     16 S16        30.5630   29.7338   -1.4817 S.3       12 UNK        -0.2608 
     17 C17        29.4477   29.0139   -0.2287 C.3       12 UNK        -0.0989 
     18 CA         27.9820   28.9123   -0.7131 C.3       5 UNK         0.0716 
     19 N          27.8278   28.0361   -1.8669 N.am      5 UNK        -0.4135 
     20 C          27.3872   28.3978   -3.0759 C.2       4 UNK         0.5031 
     21 O          27.2572   29.5639   -3.4505 O.2       4 UNK        -0.5229 
     22 CA         26.9790   27.2492   -4.0185 C.3       4 UNK         0.0329 
     23 CB         28.1527   26.8576   -4.9311 C.3       4 UNK        -0.2001 
     24 N          26.4968   26.0575   -3.3064 N.am      4 UNK        -0.4303 
     25 C          25.4128   26.0160   -2.5155 C.2       3 UNK         0.5044 
     26 O          24.6501   26.9697   -2.3518 O.2       3 UNK        -0.5152 
     27 CA         25.1380   24.7100   -1.7585 C.3       3 UNK         0.0319 
     28 CB         26.1307   23.5658   -2.0597 C.3       3 UNK        -0.2001 
     29 N          25.1504   24.9923   -0.3245 N.am      3 UNK        -0.4354 
     30 C          24.3209   24.4464    0.5721 C.2       2 UNK         0.4964 
     31 O          23.3897   23.6957    0.2715 O.2       2 UNK        -0.5047 
     32 CA         24.6021   24.7699    2.0566 C.3       2 UNK         0.0288 
     33 CB         23.7930   23.8815    3.0253 C.3       2 UNK        -0.2113 
     34 N          26.0285   24.7230    2.4154 N.am      2 UNK        -0.4145 
     35 C          26.8842   23.7080    2.1958 C.2       1 UNK         0.5006 
     36 O          26.5861   22.6669    1.6070 O.2       1 UNK        -0.5103 
     37 C          27.1126   28.2979    0.3926 C.2       5 UNK         0.5055 
     38 O          27.0161   27.0677    0.4774 O.2       5 UNK        -0.5220 
     39 N          26.5127   29.1530    1.2284 N.am      6 UNK        -0.4450 
     40 CA         25.7809   28.7281    2.4216 C.3       6 UNK         0.0367 
     41 CB         24.8385   29.8496    2.8883 C.3       6 UNK        -0.1929 
     42 C          26.7424   28.3124    3.5455 C.2       6 UNK         0.5070 
     43 O          26.5544   27.2549    4.1464 O.2       6 UNK        -0.5237 
     44 N          27.7524   29.1586    3.7872 N.am      7 UNK        -0.4739 
     45 CA         28.7756   29.0107    4.8230 C.3       7 UNK         0.0276 
     46 CB         29.4554   30.3793    5.0231 C.3       7 UNK        -0.1927 
     47 C          29.8228   27.9296    4.4984 C.2       7 UNK         0.5013 
     48 O          29.8235   27.3604    3.4065 O.2       7 UNK        -0.5193 
     49 N          30.7014   27.6818    5.4730 N.am      8 UNK        -0.4253 
     50 CA         31.9132   26.8764    5.3736 C.3       8 UNK         0.0242 
     51 CB         31.6183   25.4157    5.7517 C.3       8 UNK        -0.2000 
     52 C          32.9340   27.4970    6.3350 C.2       8 UNK         0.4948 
     53 O          32.5282   28.1612    7.2947 O.2       8 UNK        -0.5275 
     54 N          34.2301   27.2928    6.0606 N.am      9 UNK        -0.4246 
     55 CA         35.4123   27.8124    6.7726 C.3       9 UNK         0.0261 
     56 CB         35.4725   27.3063    8.2274 C.3       9 UNK        -0.1959 
     57 C          35.5674   29.3444    6.7036 C.2       9 UNK         0.5033 
     58 O          36.6132   29.8301    6.2704 O.2       9 UNK        -0.5390 
     59 N          34.5088   30.0787    7.0708 N.am      10 UNK        -0.4215 
     60 CA         34.3784   31.5372    6.9588 C.3       10 UNK         0.0240 
     61 CB         33.0904   31.9771    7.6738 C.3       10 UNK        -0.1982 
     62 C          34.3904   32.0509    5.5048 C.2       10 UNK         0.4970 
     63 O          34.6155   33.2412    5.2846 O.2       10 UNK        -0.4916 
     64 N          34.1661   31.1423    4.5489 N.am      11 UNK        -0.4279 
     65 CA         34.3368   31.3290    3.1041 C.3       11 UNK         0.1003 
     66 C          35.7940   31.6438    2.6468 C.2       11 UNK         0.5709 
     67 N          36.8186   31.3814    3.4522 N.am      11 UNK        -0.7358 
     68 O          35.9930   32.1423    1.5417 O.2       11 UNK        -0.4999 
     69 C69        33.7443   30.1183    2.3350 C.3       12 UNK        -0.0954 
     70 S70        34.5193   28.5284    2.8082 S.3       12 UNK        -0.2268 
     71 C71        35.0558   27.8734    1.1998 C.3       12 UNK         0.0203 
     72 H72        28.2556   26.1597    6.0566 H         1 UNK         0.0888 
     73 H73        26.9904   25.2248    6.8383 H         1 UNK         0.0888 
     74 H74        28.6849   24.7905    7.0848 H         1 UNK         0.0888 
     75 H75        28.7527   25.5699    3.8945 H         1 UNK         0.3017 
     76 H76        28.6302   22.8340    3.0038 H         1 UNK         0.0873 
     77 H77        29.1726   25.4572    1.5236 H         1 UNK         0.0745 
     78 H78        29.1030   23.9098    0.7110 H         1 UNK         0.0745 
     79 H79        32.7431   23.3616    0.6211 H         1 UNK         0.0705 
     80 H80        31.2341   23.5808   -0.2223 H         1 UNK         0.0705 
     81 H81        33.9611   25.4147    1.5618 H         1 UNK         0.1334 
     82 H82        33.5368   28.9741   -0.7916 H         1 UNK         0.1417 
     83 H83        30.7903   25.7180   -1.3066 H         1 UNK         0.1562 
     84 H84        30.5638   27.6451   -2.6909 H         1 UNK         0.0748 
     85 H85        32.0225   28.5539   -2.9934 H         1 UNK         0.0748 
     86 H86        29.5068   29.6518    0.6553 H         1 UNK         0.0940 
     87 H87        29.8179   28.0405    0.0965 H         1 UNK         0.0940 
     88 H88        27.6054   29.9117   -0.9416 H         1 UNK         0.0703 
     89 H89        27.8266   27.0534   -1.6336 H         1 UNK         0.3081 
     90 H90        26.1628   27.6150   -4.6452 H         1 UNK         0.0719 
     91 H91        28.9888   26.4471   -4.3638 H         1 UNK         0.0809 
     92 H92        27.8506   26.1152   -5.6699 H         1 UNK         0.0809 
     93 H93        28.5257   27.7239   -5.4797 H         1 UNK         0.0809 
     94 H94        27.0514   25.2186   -3.3988 H         1 UNK         0.2990 
     95 H95        24.1410   24.3886   -2.0669 H         1 UNK         0.0690 
     96 H96        26.1413   23.3133   -3.1209 H         1 UNK         0.0788 
     97 H97        25.8482   22.6591   -1.5236 H         1 UNK         0.0788 
     98 H98        27.1485   23.8149   -1.7563 H         1 UNK         0.0788 
     99 H99        25.8516   25.6576   -0.0021 H         1 UNK         0.2993 
    100 H100       24.2715   25.7964    2.2083 H         1 UNK         0.0949 
    101 H101       23.9801   24.1565    4.0635 H         1 UNK         0.0767 
    102 H102       22.7210   23.9845    2.8521 H         1 UNK         0.0767 
    103 H103       24.0440   22.8265    2.9085 H         1 UNK         0.0767 
    104 H104       26.3811   25.5343    2.9132 H         1 UNK         0.3013 
    105 H105       26.6167   30.1467    1.0798 H         1 UNK         0.3121 
    106 H106       25.1661   27.8657    2.1640 H         1 UNK         0.0774 
    107 H107       25.3800   30.7604    3.1462 H         1 UNK         0.0815 
    108 H108       24.2788   29.5425    3.7730 H         1 UNK         0.0815 
    109 H109       24.1095   30.0999    2.1173 H         1 UNK         0.0815 
    110 H110       27.8344   29.9741    3.1999 H         1 UNK         0.2987 
    111 H111       28.2766   28.7256    5.7520 H         1 UNK         0.0949 
    112 H112       30.1661   30.3591    5.8502 H         1 UNK         0.0806 
    113 H113       30.0034   30.6909    4.1326 H         1 UNK         0.0806 
    114 H114       28.7251   31.1550    5.2550 H         1 UNK         0.0806 
    115 H115       30.6564   28.2119    6.3359 H         1 UNK         0.3010 
    116 H116       32.3036   26.9256    4.3541 H         1 UNK         0.0829 
    117 H117       30.9065   24.9663    5.0619 H         1 UNK         0.0813 
    118 H118       32.5244   24.8101    5.7130 H         1 UNK         0.0813 
    119 H119       31.2111   25.3334    6.7600 H         1 UNK         0.0813 
    120 H120       34.4466   26.7571    5.2306 H         1 UNK         0.3038 
    121 H121       36.2737   27.3924    6.2504 H         1 UNK         0.0769 
    122 H122       36.3972   27.6246    8.7106 H         1 UNK         0.0811 
    123 H123       34.6471   27.6838    8.8315 H         1 UNK         0.0811 
    124 H124       35.4448   26.2175    8.2681 H         1 UNK         0.0811 
    125 H125       33.6841   29.5606    7.3730 H         1 UNK         0.3204 
    126 H126       35.2315   31.9887    7.4693 H         1 UNK         0.0748 
    127 H127       32.9720   33.0610    7.6373 H         1 UNK         0.0771 
    128 H128       32.2042   31.5356    7.2157 H         1 UNK         0.0771 
    129 H129       33.1027   31.6895    8.7253 H         1 UNK         0.0771 
    130 H130       34.0043   30.1897    4.8355 H         1 UNK         0.2980 
    131 H131       33.7459   32.2060    2.8341 H         1 UNK         0.0545 
    132 H132       37.7535   31.5941    3.1432 H         1 UNK         0.3459 
    133 H133       36.6720   30.9475    4.3544 H         1 UNK         0.3459 
    134 H134       33.8262   30.2754    1.2586 H         1 UNK         0.0616 
    135 H135       32.6749   30.0387    2.5372 H         1 UNK         0.0616 
    136 H136       35.8223   27.1151    1.3661 H         1 UNK         0.0634 
    137 H137       35.5269   28.6627    0.6118 H         1 UNK         0.0634 
@<TRIPOS>BOND
     1    1    2 1    
     2    1   72 1    
     3    1   73 1    
     4    1   74 1    
     5    2    3 2    
     6    2    4 am   BACKBONE|DICT|INTERRES
     7    4    5 1    
     8    4   75 1    
     9    5    6 1    
    10    5   35 1    
    11    5   76 1    
    12    6    7 1    
    13    6   77 1    
    14    6   78 1    
    15    7    8 1    
    16    8    9 1    
    17    8   79 1    
    18    8   80 1    
    19    9   10 ar   
    20    9   14 ar   
    21   10   11 ar   
    22   10   81 1    
    23   11   12 ar   
    24   11   71 1    
    25   12   13 ar   
    26   12   82 1    
    27   13   14 ar   
    28   13   15 1    
    29   14   83 1    
    30   15   16 1    
    31   15   84 1    
    32   15   85 1    
    33   16   17 1    
    34   17   18 1    
    35   17   86 1    
    36   17   87 1    
    37   18   19 1    
    38   18   37 1    
    39   18   88 1    
    40   19   20 am   BACKBONE|DICT|INTERRES
    41   19   89 1    
    42   20   21 2    
    43   20   22 1    
    44   22   23 1    
    45   22   24 1    
    46   22   90 1    
    47   23   91 1    
    48   23   92 1    
    49   23   93 1    
    50   24   25 am   BACKBONE|DICT|INTERRES
    51   24   94 1    
    52   25   26 2    
    53   25   27 1    
    54   27   28 1    
    55   27   29 1    
    56   27   95 1    
    57   28   96 1    
    58   28   97 1    
    59   28   98 1    
    60   29   30 am   BACKBONE|DICT|INTERRES
    61   29   99 1    
    62   30   31 2    
    63   30   32 1    
    64   32   33 1    
    65   32   34 1    
    66   32  100 1    
    67   33  101 1    
    68   33  102 1    
    69   33  103 1    
    70   34   35 am   BACKBONE|DICT|INTERRES
    71   34  104 1    
    72   35   36 2    
    73   37   38 2    
    74   37   39 am   BACKBONE|DICT|INTERRES
    75   39   40 1    
    76   39  105 1    
    77   40   41 1    
    78   40   42 1    
    79   40  106 1    
    80   41  107 1    
    81   41  108 1    
    82   41  109 1    
    83   42   43 2    
    84   42   44 am   BACKBONE|DICT|INTERRES
    85   44   45 1    
    86   44  110 1    
    87   45   46 1    
    88   45   47 1    
    89   45  111 1    
    90   46  112 1    
    91   46  113 1    
    92   46  114 1    
    93   47   48 2    
    94   47   49 am   BACKBONE|DICT|INTERRES
    95   49   50 1    
    96   49  115 1    
    97   50   51 1    
    98   50   52 1    
    99   50  116 1    
   100   51  117 1    
   101   51  118 1    
   102   51  119 1    
   103   52   53 2    
   104   52   54 am   BACKBONE|DICT|INTERRES
   105   54   55 1    
   106   54  120 1    
   107   55   56 1    
   108   55   57 1    
   109   55  121 1    
   110   56  122 1    
   111   56  123 1    
   112   56  124 1    
   113   57   58 2    
   114   57   59 am   BACKBONE|DICT|INTERRES
   115   59   60 1    
   116   59  125 1    
   117   60   61 1    
   118   60   62 1    
   119   60  126 1    
   120   61  127 1    
   121   61  128 1    
   122   61  129 1    
   123   62   63 2    
   124   62   64 am   BACKBONE|DICT|INTERRES
   125   64   65 1    
   126   64  130 1    
   127   65   66 1    
   128   65   69 1    
   129   65  131 1    
   130   66   67 am   BACKBONE|DICT|INTERRES
   131   66   68 2    
   132   67  132 1    
   133   67  133 1    
   134   69   70 1    
   135   69  134 1    
   136   69  135 1    
   137   70   71 1    
   138   71  136 1    
   139   71  137 1    
@<TRIPOS>SUBSTRUCTURE
     1 UNK         1 GROUP             0       ****    0 ROOT    
