@<TRIPOS>MOLECULE
3R136
137   139    1
SMALL
USER_CHARGES


@<TRIPOS>ATOM
      1 CA         33.9753   21.1648    1.2088 C.3       0 UNK        -0.1979 
      2 C          32.4829   21.2702    0.9322 C.2       0 UNK         0.4864 
      3 O          31.9117   20.3651    0.3234 O.2       0 UNK        -0.5359 
      4 N          31.8597   22.3779    1.3622 N.am      1 UNK        -0.4318 
      5 CA         30.4228   22.6926    1.2435 C.3       1 UNK         0.0824 
      6 C6         29.4888   21.6715    1.9567 C.3       12 UNK        -0.0944 
      7 S7         30.0252   21.2496    3.6525 S.3       12 UNK        -0.2672 
      8 C8         28.5002   21.4740    4.6297 C.3       12 UNK         0.0333 
      9 C9         28.2296   22.9050    5.0944 C.ar      12 UNK        -0.0807 
     10 C10        29.2672   23.8009    5.3862 C.ar      12 UNK        -0.0894 
     11 C11        28.9876   25.0781    5.8809 C.ar      12 UNK        -0.0804 
     12 C12        27.6622   25.4541    6.1098 C.ar      12 UNK        -0.0824 
     13 C13        26.6158   24.5808    5.8058 C.ar      12 UNK        -0.0762 
     14 C14        26.9062   23.3096    5.3010 C.ar      12 UNK        -0.0782 
     15 C15        25.1719   25.0037    6.0303 C.3       12 UNK         0.0230 
     16 S16        24.4242   25.6660    4.5081 S.3       12 UNK        -0.2608 
     17 C17        25.0978   27.3648    4.4452 C.3       12 UNK        -0.0989 
     18 CA         26.3513   27.5125    3.5398 C.3       5 UNK         0.0716 
     19 N          26.1478   26.9198    2.2114 N.am      5 UNK        -0.4135 
     20 C          27.1205   26.4398    1.4293 C.2       4 UNK         0.5031 
     21 O          28.3144   26.5207    1.7230 O.2       4 UNK        -0.5229 
     22 CA         26.7126   25.7724    0.1020 C.3       4 UNK         0.0329 
     23 CB         25.3488   26.2415   -0.4550 C.3       4 UNK        -0.2001 
     24 N          27.7835   25.9143   -0.8894 N.am      4 UNK        -0.4303 
     25 C          28.2446   27.0566   -1.4261 C.2       3 UNK         0.5044 
     26 O          27.6793   28.1441   -1.3061 O.2       3 UNK        -0.5152 
     27 CA         29.5781   26.9968   -2.1974 C.3       3 UNK         0.0319 
     28 CB         30.5489   28.0846   -1.7026 C.3       3 UNK        -0.2001 
     29 N          30.2333   25.6914   -2.0785 N.am      3 UNK        -0.4354 
     30 C          30.0458   24.6679   -2.9228 C.2       2 UNK         0.4964 
     31 O          29.3505   24.7362   -3.9366 O.2       2 UNK        -0.5047 
     32 CA         30.7241   23.3328   -2.5737 C.3       2 UNK         0.0288 
     33 CB         32.0727   23.2084   -3.3011 C.3       2 UNK        -0.2113 
     34 N          30.9351   23.1267   -1.1390 N.am      2 UNK        -0.4145 
     35 C          29.9744   22.9616   -0.2161 C.2       1 UNK         0.5006 
     36 O          28.7731   23.0324   -0.4826 O.2       1 UNK        -0.5103 
     37 C          26.8597   28.9750    3.4808 C.2       5 UNK         0.5055 
     38 O          26.4917   29.7870    4.3325 O.2       5 UNK        -0.5220 
     39 N          27.6952   29.3050    2.4879 N.am      6 UNK        -0.4450 
     40 CA         28.2429   30.6380    2.2268 C.3       6 UNK         0.0367 
     41 CB         28.5845   30.7463    0.7294 C.3       6 UNK        -0.1929 
     42 C          29.4545   30.9492    3.1243 C.2       6 UNK         0.5070 
     43 O          30.5119   31.3245    2.6193 O.2       6 UNK        -0.5237 
     44 N          29.2851   30.7959    4.4445 N.am      7 UNK        -0.4739 
     45 CA         30.3366   30.8871    5.4665 C.3       7 UNK         0.0276 
     46 CB         29.7223   30.6336    6.8516 C.3       7 UNK        -0.1927 
     47 C          31.1444   32.1960    5.4583 C.2       7 UNK         0.5013 
     48 O          32.3437   32.1614    5.7334 O.2       7 UNK        -0.5193 
     49 N          30.4980   33.3081    5.0819 N.am      8 UNK        -0.4253 
     50 CA         31.1207   34.6239    4.9029 C.3       8 UNK         0.0242 
     51 CB         30.0207   35.6723    4.6695 C.3       8 UNK        -0.2000 
     52 C          32.1647   34.6809    3.7688 C.2       8 UNK         0.4948 
     53 O          33.0515   35.5338    3.8208 O.2       8 UNK        -0.5275 
     54 N          32.0514   33.7839    2.7795 N.am      9 UNK        -0.4246 
     55 CA         32.9744   33.6426    1.6495 C.3       9 UNK         0.0261 
     56 CB         32.1536   33.7060    0.3484 C.3       9 UNK        -0.1959 
     57 C          33.7808   32.3299    1.7203 C.2       9 UNK         0.5033 
     58 O          34.5265   32.0467    0.7812 O.2       9 UNK        -0.5390 
     59 N          33.6122   31.5685    2.8140 N.am      10 UNK        -0.4215 
     60 CA         34.0121   30.1770    3.0544 C.3       10 UNK         0.0240 
     61 CB         35.5149   29.9353    2.8094 C.3       10 UNK        -0.1982 
     62 C          33.1353   29.1889    2.2626 C.2       10 UNK         0.4970 
     63 O          32.9076   29.3712    1.0655 O.2       10 UNK        -0.4916 
     64 N          32.6652   28.1459    2.9569 N.am      11 UNK        -0.4279 
     65 CA         31.7541   27.1218    2.4176 C.3       11 UNK         0.1003 
     66 C          32.3773   26.2156    1.3171 C.2       11 UNK         0.5709 
     67 N          33.6941   26.0564    1.2606 N.am      11 UNK        -0.7358 
     68 O          31.6580   25.6507    0.4983 O.2       11 UNK        -0.4999 
     69 C69        31.1326   26.2593    3.5479 C.3       12 UNK        -0.0954 
     70 S70        30.2973   27.2633    4.8212 S.3       12 UNK        -0.2268 
     71 C71        30.1121   26.0589    6.1706 C.3       12 UNK         0.0203 
     72 H72        34.3580   22.0430    1.7285 H         1 UNK         0.0888 
     73 H73        34.1800   20.2904    1.8260 H         1 UNK         0.0888 
     74 H74        34.5242   21.0582    0.2736 H         1 UNK         0.0888 
     75 H75        32.4030   23.0803    1.8438 H         1 UNK         0.3017 
     76 H76        30.2916   23.6457    1.7562 H         1 UNK         0.0873 
     77 H77        28.4714   22.0653    1.9955 H         1 UNK         0.0745 
     78 H78        29.4305   20.7427    1.3866 H         1 UNK         0.0745 
     79 H79        27.6545   21.0878    4.0585 H         1 UNK         0.0705 
     80 H80        28.5770   20.8466    5.5185 H         1 UNK         0.0705 
     81 H81        30.2969   23.5074    5.2381 H         1 UNK         0.1334 
     82 H82        27.4459   26.4394    6.4997 H         1 UNK         0.1417 
     83 H83        26.0950   22.6280    5.0821 H         1 UNK         0.1562 
     84 H84        25.1012   25.7382    6.8340 H         1 UNK         0.0748 
     85 H85        24.5878   24.1428    6.3592 H         1 UNK         0.0748 
     86 H86        25.3185   27.6967    5.4615 H         1 UNK         0.0940 
     87 H87        24.2999   28.0190    4.0884 H         1 UNK         0.0940 
     88 H88        27.1596   26.9564    4.0128 H         1 UNK         0.0703 
     89 H89        25.1899   26.8374    1.9049 H         1 UNK         0.3081 
     90 H90        26.6371   24.7044    0.3105 H         1 UNK         0.0719 
     91 H91        25.2933   27.3266   -0.5492 H         1 UNK         0.0809 
     92 H92        25.1608   25.8148   -1.4403 H         1 UNK         0.0809 
     93 H93        24.5274   25.9231    0.1877 H         1 UNK         0.0809 
     94 H94        28.3373   25.0771   -1.0246 H         1 UNK         0.2990 
     95 H95        29.3543   27.2011   -3.2464 H         1 UNK         0.0690 
     96 H96        31.5091   28.0271   -2.2154 H         1 UNK         0.0788 
     97 H97        30.7357   28.0023   -0.6315 H         1 UNK         0.0788 
     98 H98        30.1458   29.0816   -1.8841 H         1 UNK         0.0788 
     99 H99        30.7997   25.5493   -1.2450 H         1 UNK         0.2993 
    100 H100       30.0678   22.5347   -2.9277 H         1 UNK         0.0949 
    101 H101       32.5245   22.2300   -3.1351 H         1 UNK         0.0767 
    102 H102       31.9478   23.3271   -4.3785 H         1 UNK         0.0767 
    103 H103       32.7817   23.9681   -2.9691 H         1 UNK         0.0767 
    104 H104       31.8924   23.0873   -0.8228 H         1 UNK         0.3013 
    105 H105       28.0265   28.5511    1.8953 H         1 UNK         0.3121 
    106 H106       27.4777   31.3847    2.4488 H         1 UNK         0.0774 
    107 H107       28.9498   31.7433    0.4799 H         1 UNK         0.0815 
    108 H108       29.3586   30.0333    0.4422 H         1 UNK         0.0815 
    109 H109       27.7094   30.5586    0.1073 H         1 UNK         0.0815 
    110 H110       28.3669   30.4958    4.7559 H         1 UNK         0.2987 
    111 H111       31.0482   30.0859    5.2597 H         1 UNK         0.0949 
    112 H112       28.9631   31.3766    7.0987 H         1 UNK         0.0806 
    113 H113       29.2585   29.6482    6.9040 H         1 UNK         0.0806 
    114 H114       30.4847   30.6720    7.6310 H         1 UNK         0.0806 
    115 H115       29.5154   33.2314    4.8618 H         1 UNK         0.3010 
    116 H116       31.6395   34.8725    5.8313 H         1 UNK         0.0829 
    117 H117       29.3229   35.7103    5.5063 H         1 UNK         0.0813 
    118 H118       30.4488   36.6701    4.5627 H         1 UNK         0.0813 
    119 H119       29.4502   35.4644    3.7633 H         1 UNK         0.0813 
    120 H120       31.3091   33.0889    2.8197 H         1 UNK         0.3038 
    121 H121       33.6971   34.4608    1.6390 H         1 UNK         0.0769 
    122 H122       31.4481   32.8764    0.2803 H         1 UNK         0.0811 
    123 H123       32.8004   33.6573   -0.5285 H         1 UNK         0.0811 
    124 H124       31.5878   34.6352    0.2807 H         1 UNK         0.0811 
    125 H125       32.9876   31.9405    3.5173 H         1 UNK         0.3204 
    126 H126       33.8257   30.0145    4.1174 H         1 UNK         0.0748 
    127 H127       35.8105   28.9479    3.1656 H         1 UNK         0.0771 
    128 H128       35.7698   29.9819    1.7502 H         1 UNK         0.0771 
    129 H129       36.1269   30.6677    3.3360 H         1 UNK         0.0771 
    130 H130       32.8993   28.0507    3.9335 H         1 UNK         0.2980 
    131 H131       30.9341   27.6573    1.9344 H         1 UNK         0.0545 
    132 H132       34.2945   26.5249    1.9191 H         1 UNK         0.3459 
    133 H133       34.0921   25.4884    0.5310 H         1 UNK         0.3459 
    134 H134       30.3955   25.5662    3.1407 H         1 UNK         0.0616 
    135 H135       31.9009   25.6501    4.0270 H         1 UNK         0.0616 
    136 H136       31.0559   25.5369    6.3352 H         1 UNK         0.0634 
    137 H137       29.8964   26.5986    7.0938 H         1 UNK         0.0634 
@<TRIPOS>BOND
     1    1    2 1    
     2    1   72 1    
     3    1   73 1    
     4    1   74 1    
     5    2    3 2    
     6    2    4 am   BACKBONE|DICT|INTERRES
     7    4    5 1    
     8    4   75 1    
     9    5    6 1    
    10    5   35 1    
    11    5   76 1    
    12    6    7 1    
    13    6   77 1    
    14    6   78 1    
    15    7    8 1    
    16    8    9 1    
    17    8   79 1    
    18    8   80 1    
    19    9   10 ar   
    20    9   14 ar   
    21   10   11 ar   
    22   10   81 1    
    23   11   12 ar   
    24   11   71 1    
    25   12   13 ar   
    26   12   82 1    
    27   13   14 ar   
    28   13   15 1    
    29   14   83 1    
    30   15   16 1    
    31   15   84 1    
    32   15   85 1    
    33   16   17 1    
    34   17   18 1    
    35   17   86 1    
    36   17   87 1    
    37   18   19 1    
    38   18   37 1    
    39   18   88 1    
    40   19   20 am   BACKBONE|DICT|INTERRES
    41   19   89 1    
    42   20   21 2    
    43   20   22 1    
    44   22   23 1    
    45   22   24 1    
    46   22   90 1    
    47   23   91 1    
    48   23   92 1    
    49   23   93 1    
    50   24   25 am   BACKBONE|DICT|INTERRES
    51   24   94 1    
    52   25   26 2    
    53   25   27 1    
    54   27   28 1    
    55   27   29 1    
    56   27   95 1    
    57   28   96 1    
    58   28   97 1    
    59   28   98 1    
    60   29   30 am   BACKBONE|DICT|INTERRES
    61   29   99 1    
    62   30   31 2    
    63   30   32 1    
    64   32   33 1    
    65   32   34 1    
    66   32  100 1    
    67   33  101 1    
    68   33  102 1    
    69   33  103 1    
    70   34   35 am   BACKBONE|DICT|INTERRES
    71   34  104 1    
    72   35   36 2    
    73   37   38 2    
    74   37   39 am   BACKBONE|DICT|INTERRES
    75   39   40 1    
    76   39  105 1    
    77   40   41 1    
    78   40   42 1    
    79   40  106 1    
    80   41  107 1    
    81   41  108 1    
    82   41  109 1    
    83   42   43 2    
    84   42   44 am   BACKBONE|DICT|INTERRES
    85   44   45 1    
    86   44  110 1    
    87   45   46 1    
    88   45   47 1    
    89   45  111 1    
    90   46  112 1    
    91   46  113 1    
    92   46  114 1    
    93   47   48 2    
    94   47   49 am   BACKBONE|DICT|INTERRES
    95   49   50 1    
    96   49  115 1    
    97   50   51 1    
    98   50   52 1    
    99   50  116 1    
   100   51  117 1    
   101   51  118 1    
   102   51  119 1    
   103   52   53 2    
   104   52   54 am   BACKBONE|DICT|INTERRES
   105   54   55 1    
   106   54  120 1    
   107   55   56 1    
   108   55   57 1    
   109   55  121 1    
   110   56  122 1    
   111   56  123 1    
   112   56  124 1    
   113   57   58 2    
   114   57   59 am   BACKBONE|DICT|INTERRES
   115   59   60 1    
   116   59  125 1    
   117   60   61 1    
   118   60   62 1    
   119   60  126 1    
   120   61  127 1    
   121   61  128 1    
   122   61  129 1    
   123   62   63 2    
   124   62   64 am   BACKBONE|DICT|INTERRES
   125   64   65 1    
   126   64  130 1    
   127   65   66 1    
   128   65   69 1    
   129   65  131 1    
   130   66   67 am   BACKBONE|DICT|INTERRES
   131   66   68 2    
   132   67  132 1    
   133   67  133 1    
   134   69   70 1    
   135   69  134 1    
   136   69  135 1    
   137   70   71 1    
   138   71  136 1    
   139   71  137 1    
@<TRIPOS>SUBSTRUCTURE
     1 UNK         1 GROUP             0       ****    0 ROOT    
