@<TRIPOS>MOLECULE
3R136
137   139    1
SMALL
USER_CHARGES


@<TRIPOS>ATOM
      1 CA         29.4174   24.1945   -6.1015 C.3       0 UNK        -0.1979 
      2 C          28.8172   24.2572   -4.7051 C.2       0 UNK         0.4864 
      3 O          27.6119   24.4741   -4.5640 O.2       0 UNK        -0.5359 
      4 N          29.6423   24.0631   -3.6669 N.am      1 UNK        -0.4318 
      5 CA         29.2414   24.0679   -2.2569 C.3       1 UNK         0.0824 
      6 C6         30.4369   24.4195   -1.3337 C.3       12 UNK        -0.0944 
      7 S7         29.9277   24.9777    0.3321 S.3       12 UNK        -0.2672 
      8 C8         30.5311   23.6078    1.3701 C.3       12 UNK         0.0333 
      9 C9         30.7256   24.0628    2.8067 C.ar      12 UNK        -0.0807 
     10 C10        31.9626   24.5660    3.2164 C.ar      12 UNK        -0.0894 
     11 C11        32.1540   24.9965    4.5319 C.ar      12 UNK        -0.0804 
     12 C12        31.0875   24.9495    5.4342 C.ar      12 UNK        -0.0824 
     13 C13        29.8407   24.4568    5.0352 C.ar      12 UNK        -0.0762 
     14 C14        29.6763   23.9874    3.7258 C.ar      12 UNK        -0.0782 
     15 C15        28.6818   24.4361    6.0267 C.3       12 UNK         0.0230 
     16 S16        27.1131   25.0332    5.3113 S.3       12 UNK        -0.2608 
     17 C17        27.4468   26.8111    5.0435 C.3       12 UNK        -0.0989 
     18 CA         28.1230   27.1387    3.6792 C.3       5 UNK         0.0716 
     19 N          27.4837   26.4839    2.5293 N.am      5 UNK        -0.4135 
     20 C          26.2619   26.7371    2.0349 C.2       4 UNK         0.5031 
     21 O          25.4930   27.5936    2.4726 O.2       4 UNK        -0.5229 
     22 CA         25.8196   25.8795    0.8386 C.3       4 UNK         0.0329 
     23 CB         26.3537   26.4671   -0.4786 C.3       4 UNK        -0.2001 
     24 N          26.2342   24.4794    0.9576 N.am      4 UNK        -0.4303 
     25 C          25.6774   23.5887    1.7933 C.2       3 UNK         0.5044 
     26 O          24.7645   23.8631    2.5737 O.2       3 UNK        -0.5152 
     27 CA         26.2239   22.1458    1.7187 C.3       3 UNK         0.0319 
     28 CB         25.2932   21.1106    2.3855 C.3       3 UNK        -0.2001 
     29 N          26.5673   21.7394    0.3488 N.am      3 UNK        -0.4354 
     30 C          25.7511   21.6760   -0.7155 C.2       2 UNK         0.4964 
     31 O          24.5352   21.8689   -0.6676 O.2       2 UNK        -0.5047 
     32 CA         26.4390   21.4207   -2.0716 C.3       2 UNK         0.0288 
     33 CB         25.4359   21.2220   -3.2235 C.3       2 UNK        -0.2113 
     34 N          27.3320   22.5327   -2.4098 N.am      2 UNK        -0.4145 
     35 C          28.5445   22.7416   -1.8819 C.2       1 UNK         0.5006 
     36 O          29.0882   21.9409   -1.1181 O.2       1 UNK        -0.5103 
     37 C          28.2797   28.6556    3.4370 C.2       5 UNK         0.5055 
     38 O          27.8071   29.4652    4.2389 O.2       5 UNK        -0.5220 
     39 N          28.9063   29.0049    2.3041 N.am      6 UNK        -0.4450 
     40 CA         29.0652   30.3738    1.8117 C.3       6 UNK         0.0367 
     41 CB         29.6971   30.3285    0.4106 C.3       6 UNK        -0.1929 
     42 C          29.9105   31.2649    2.7364 C.2       6 UNK         0.5070 
     43 O          30.9631   30.8381    3.2193 O.2       6 UNK        -0.5237 
     44 N          29.4784   32.5219    2.9025 N.am      7 UNK        -0.4739 
     45 CA         30.2100   33.5577    3.6412 C.3       7 UNK         0.0276 
     46 CB         29.3286   34.8077    3.7884 C.3       7 UNK        -0.1927 
     47 C          31.5549   33.9162    2.9862 C.2       7 UNK         0.5013 
     48 O          32.5214   34.1870    3.6974 O.2       7 UNK        -0.5193 
     49 N          31.6102   33.8409    1.6479 N.am      8 UNK        -0.4253 
     50 CA         32.8167   34.0256    0.8352 C.3       8 UNK         0.0242 
     51 CB         32.4256   34.0350   -0.6516 C.3       8 UNK        -0.2000 
     52 C          33.9124   32.9735    1.0945 C.2       8 UNK         0.4948 
     53 O          35.0878   33.2704    0.8791 O.2       8 UNK        -0.5275 
     54 N          33.5210   31.7809    1.5680 N.am      9 UNK        -0.4246 
     55 CA         34.4338   30.7160    1.9904 C.3       9 UNK         0.0261 
     56 CB         33.7479   29.3554    1.7727 C.3       9 UNK        -0.1959 
     57 C          34.8928   30.8717    3.4544 C.2       9 UNK         0.5033 
     58 O          35.7625   30.1130    3.8833 O.2       9 UNK        -0.5390 
     59 N          34.3070   31.8308    4.1923 N.am      10 UNK        -0.4215 
     60 CA         34.5139   32.1224    5.6166 C.3       10 UNK         0.0240 
     61 CB         35.9608   32.5892    5.8875 C.3       10 UNK        -0.1982 
     62 C          34.0604   30.9825    6.5518 C.2       10 UNK         0.4970 
     63 O          34.6036   30.8434    7.6495 O.2       10 UNK        -0.4916 
     64 N          33.0640   30.2035    6.1147 N.am      11 UNK        -0.4279 
     65 CA         32.5066   29.0553    6.8471 C.3       11 UNK         0.1003 
     66 C          30.9827   28.8390    6.6347 C.2       11 UNK         0.5709 
     67 N          30.2971   29.6637    5.8547 N.am      11 UNK        -0.7358 
     68 O          30.4009   27.9296    7.2207 O.2       11 UNK        -0.4999 
     69 C69        33.3515   27.7660    6.6558 C.3       12 UNK        -0.0954 
     70 S70        33.6185   27.3106    4.9069 S.3       12 UNK        -0.2268 
     71 C71        33.5197   25.4980    4.9718 C.3       12 UNK         0.0203 
     72 H72        29.2560   25.1385   -6.6212 H         1 UNK         0.0888 
     73 H73        30.4894   24.0000   -6.0766 H         1 UNK         0.0888 
     74 H74        28.9418   23.4018   -6.6784 H         1 UNK         0.0888 
     75 H75        30.6162   23.8597   -3.8436 H         1 UNK         0.3017 
     76 H76        28.5003   24.8608   -2.1335 H         1 UNK         0.0873 
     77 H77        30.9990   25.2475   -1.7691 H         1 UNK         0.0745 
     78 H78        31.1459   23.5921   -1.2710 H         1 UNK         0.0745 
     79 H79        29.8258   22.7771    1.3275 H         1 UNK         0.0705 
     80 H80        31.4766   23.2294    0.9790 H         1 UNK         0.0705 
     81 H81        32.7795   24.6202    2.5095 H         1 UNK         0.1334 
     82 H82        31.2287   25.3018    6.4469 H         1 UNK         0.1417 
     83 H83        28.7196   23.5933    3.4152 H         1 UNK         0.1562 
     84 H84        28.9139   25.0339    6.9099 H         1 UNK         0.0748 
     85 H85        28.5406   23.4119    6.3739 H         1 UNK         0.0748 
     86 H86        28.0569   27.1844    5.8680 H         1 UNK         0.0940 
     87 H87        26.4890   27.3289    5.1215 H         1 UNK         0.0940 
     88 H88        29.1421   26.7548    3.7184 H         1 UNK         0.0703 
     89 H89        28.0355   25.7705    2.0760 H         1 UNK         0.3081 
     90 H90        24.7281   25.9045    0.7988 H         1 UNK         0.0719 
     91 H91        26.0005   27.4901   -0.6161 H         1 UNK         0.0809 
     92 H92        27.4430   26.4976   -0.5022 H         1 UNK         0.0809 
     93 H93        26.0128   25.8910   -1.3392 H         1 UNK         0.0809 
     94 H94        26.9714   24.1653    0.3459 H         1 UNK         0.2990 
     95 H95        27.1601   22.1481    2.2778 H         1 UNK         0.0690 
     96 H96        25.7125   20.1061    2.3299 H         1 UNK         0.0788 
     97 H97        24.3083   21.0900    1.9181 H         1 UNK         0.0788 
     98 H98        25.1463   21.3411    3.4415 H         1 UNK         0.0788 
     99 H99        27.5555   21.5889    0.1673 H         1 UNK         0.2993 
    100 H100       27.0260   20.5042   -1.9766 H         1 UNK         0.0949 
    101 H101       24.8247   22.1108   -3.3863 H         1 UNK         0.0767 
    102 H102       25.9481   20.9929   -4.1583 H         1 UNK         0.0767 
    103 H103       24.7592   20.3925   -3.0136 H         1 UNK         0.0767 
    104 H104       26.9853   23.2192   -3.0730 H         1 UNK         0.3013 
    105 H105       29.2880   28.2734    1.7231 H         1 UNK         0.3121 
    106 H106       28.0656   30.8054    1.7273 H         1 UNK         0.0774 
    107 H107       30.6915   29.8799    0.4310 H         1 UNK         0.0815 
    108 H108       29.0840   29.7536   -0.2839 H         1 UNK         0.0815 
    109 H109       29.8006   31.3306   -0.0076 H         1 UNK         0.0815 
    110 H110       28.6035   32.7987    2.4792 H         1 UNK         0.2987 
    111 H111       30.4252   33.1700    4.6396 H         1 UNK         0.0949 
    112 H112       28.4067   34.5822    4.3249 H         1 UNK         0.0806 
    113 H113       29.8466   35.5853    4.3520 H         1 UNK         0.0806 
    114 H114       29.0596   35.2318    2.8202 H         1 UNK         0.0806 
    115 H115       30.7598   33.6141    1.1536 H         1 UNK         0.3010 
    116 H116       33.2384   35.0012    1.0867 H         1 UNK         0.0829 
    117 H117       31.9764   33.0894   -0.9582 H         1 UNK         0.0813 
    118 H118       33.2996   34.2000   -1.2837 H         1 UNK         0.0813 
    119 H119       31.7157   34.8327   -0.8714 H         1 UNK         0.0813 
    120 H120       32.5379   31.6209    1.7471 H         1 UNK         0.3038 
    121 H121       35.3295   30.7425    1.3660 H         1 UNK         0.0769 
    122 H122       33.4362   29.2268    0.7362 H         1 UNK         0.0811 
    123 H123       32.8687   29.2353    2.4061 H         1 UNK         0.0811 
    124 H124       34.4273   28.5354    2.0094 H         1 UNK         0.0811 
    125 H125       33.6317   32.4353    3.7371 H         1 UNK         0.3204 
    126 H126       33.8573   32.9636    5.8432 H         1 UNK         0.0748 
    127 H127       36.6792   31.7786    5.7623 H         1 UNK         0.0771 
    128 H128       36.2476   33.3993    5.2169 H         1 UNK         0.0771 
    129 H129       36.0677   32.9619    6.9069 H         1 UNK         0.0771 
    130 H130       32.6914   30.3572    5.1889 H         1 UNK         0.2980 
    131 H131       32.5623   29.3034    7.9086 H         1 UNK         0.0545 
    132 H132       30.7522   30.3668    5.2929 H         1 UNK         0.3459 
    133 H133       29.3051   29.5178    5.7288 H         1 UNK         0.3459 
    134 H134       32.9032   26.9326    7.1984 H         1 UNK         0.0616 
    135 H135       34.3348   27.9091    7.1057 H         1 UNK         0.0616 
    136 H136       34.2935   25.0903    4.3195 H         1 UNK         0.0634 
    137 H137       33.7544   25.1346    5.9733 H         1 UNK         0.0634 
@<TRIPOS>BOND
     1    1    2 1    
     2    1   72 1    
     3    1   73 1    
     4    1   74 1    
     5    2    3 2    
     6    2    4 am   BACKBONE|DICT|INTERRES
     7    4    5 1    
     8    4   75 1    
     9    5    6 1    
    10    5   35 1    
    11    5   76 1    
    12    6    7 1    
    13    6   77 1    
    14    6   78 1    
    15    7    8 1    
    16    8    9 1    
    17    8   79 1    
    18    8   80 1    
    19    9   10 ar   
    20    9   14 ar   
    21   10   11 ar   
    22   10   81 1    
    23   11   12 ar   
    24   11   71 1    
    25   12   13 ar   
    26   12   82 1    
    27   13   14 ar   
    28   13   15 1    
    29   14   83 1    
    30   15   16 1    
    31   15   84 1    
    32   15   85 1    
    33   16   17 1    
    34   17   18 1    
    35   17   86 1    
    36   17   87 1    
    37   18   19 1    
    38   18   37 1    
    39   18   88 1    
    40   19   20 am   BACKBONE|DICT|INTERRES
    41   19   89 1    
    42   20   21 2    
    43   20   22 1    
    44   22   23 1    
    45   22   24 1    
    46   22   90 1    
    47   23   91 1    
    48   23   92 1    
    49   23   93 1    
    50   24   25 am   BACKBONE|DICT|INTERRES
    51   24   94 1    
    52   25   26 2    
    53   25   27 1    
    54   27   28 1    
    55   27   29 1    
    56   27   95 1    
    57   28   96 1    
    58   28   97 1    
    59   28   98 1    
    60   29   30 am   BACKBONE|DICT|INTERRES
    61   29   99 1    
    62   30   31 2    
    63   30   32 1    
    64   32   33 1    
    65   32   34 1    
    66   32  100 1    
    67   33  101 1    
    68   33  102 1    
    69   33  103 1    
    70   34   35 am   BACKBONE|DICT|INTERRES
    71   34  104 1    
    72   35   36 2    
    73   37   38 2    
    74   37   39 am   BACKBONE|DICT|INTERRES
    75   39   40 1    
    76   39  105 1    
    77   40   41 1    
    78   40   42 1    
    79   40  106 1    
    80   41  107 1    
    81   41  108 1    
    82   41  109 1    
    83   42   43 2    
    84   42   44 am   BACKBONE|DICT|INTERRES
    85   44   45 1    
    86   44  110 1    
    87   45   46 1    
    88   45   47 1    
    89   45  111 1    
    90   46  112 1    
    91   46  113 1    
    92   46  114 1    
    93   47   48 2    
    94   47   49 am   BACKBONE|DICT|INTERRES
    95   49   50 1    
    96   49  115 1    
    97   50   51 1    
    98   50   52 1    
    99   50  116 1    
   100   51  117 1    
   101   51  118 1    
   102   51  119 1    
   103   52   53 2    
   104   52   54 am   BACKBONE|DICT|INTERRES
   105   54   55 1    
   106   54  120 1    
   107   55   56 1    
   108   55   57 1    
   109   55  121 1    
   110   56  122 1    
   111   56  123 1    
   112   56  124 1    
   113   57   58 2    
   114   57   59 am   BACKBONE|DICT|INTERRES
   115   59   60 1    
   116   59  125 1    
   117   60   61 1    
   118   60   62 1    
   119   60  126 1    
   120   61  127 1    
   121   61  128 1    
   122   61  129 1    
   123   62   63 2    
   124   62   64 am   BACKBONE|DICT|INTERRES
   125   64   65 1    
   126   64  130 1    
   127   65   66 1    
   128   65   69 1    
   129   65  131 1    
   130   66   67 am   BACKBONE|DICT|INTERRES
   131   66   68 2    
   132   67  132 1    
   133   67  133 1    
   134   69   70 1    
   135   69  134 1    
   136   69  135 1    
   137   70   71 1    
   138   71  136 1    
   139   71  137 1    
@<TRIPOS>SUBSTRUCTURE
     1 UNK         1 GROUP             0       ****    0 ROOT    
