@<TRIPOS>MOLECULE
3R136
137   139    1
SMALL
USER_CHARGES


@<TRIPOS>ATOM
      1 CA         28.6527   26.0885    3.2256 C.3       0 UNK        -0.1979 
      2 C          28.2942   24.6353    2.9646 C.2       0 UNK         0.4864 
      3 O          27.4841   24.0652    3.6982 O.2       0 UNK        -0.5359 
      4 N          28.8816   24.0294    1.9243 N.am      1 UNK        -0.4318 
      5 CA         28.6027   22.6589    1.4823 C.3       1 UNK         0.0824 
      6 C6         29.7530   22.0810    0.6207 C.3       12 UNK        -0.0944 
      7 S7         31.2545   21.8043    1.6192 S.3       12 UNK        -0.2672 
      8 C8         32.4971   22.8111    0.7504 C.3       12 UNK         0.0333 
      9 C9         32.2363   24.3060    0.8758 C.ar      12 UNK        -0.0807 
     10 C10        32.3141   24.9333    2.1231 C.ar      12 UNK        -0.0894 
     11 C11        32.1166   26.3123    2.2379 C.ar      12 UNK        -0.0804 
     12 C12        31.8551   27.0681    1.0919 C.ar      12 UNK        -0.0824 
     13 C13        31.7744   26.4522   -0.1615 C.ar      12 UNK        -0.0762 
     14 C14        31.9585   25.0698   -0.2617 C.ar      12 UNK        -0.0782 
     15 C15        31.5236   27.2810   -1.4146 C.3       12 UNK         0.0230 
     16 S16        29.9610   28.2090   -1.3413 S.3       12 UNK        -0.2608 
     17 C17        28.7392   26.8605   -1.2077 C.3       12 UNK        -0.0989 
     18 CA         27.2879   27.3619   -1.4503 C.3       5 UNK         0.0716 
     19 N          26.4221   26.3078   -1.9734 N.am      5 UNK        -0.4135 
     20 C          26.3425   25.9597   -3.2651 C.2       4 UNK         0.5031 
     21 O          27.0220   26.4819   -4.1505 O.2       4 UNK        -0.5229 
     22 CA         25.3579   24.8412   -3.6630 C.3       4 UNK         0.0329 
     23 CB         26.1231   23.5590   -4.0312 C.3       4 UNK        -0.2001 
     24 N          24.3772   24.5208   -2.6270 N.am      4 UNK        -0.4303 
     25 C          23.3638   25.3095   -2.2443 C.2       3 UNK         0.5044 
     26 O          23.0715   26.3640   -2.8092 O.2       3 UNK        -0.5152 
     27 CA         22.5437   24.8589   -1.0180 C.3       3 UNK         0.0319 
     28 CB         21.1301   24.4283   -1.4440 C.3       3 UNK        -0.2001 
     29 N          23.1524   23.7765   -0.2316 N.am      3 UNK        -0.4354 
     30 C          24.3193   23.8446    0.4258 C.2       2 UNK         0.4964 
     31 O          25.0352   24.8480    0.4316 O.2       2 UNK        -0.5047 
     32 CA         24.7462   22.5806    1.1983 C.3       2 UNK         0.0288 
     33 CB         24.3970   21.2679    0.4588 C.3       2 UNK        -0.2113 
     34 N          26.1642   22.6017    1.5745 N.am      2 UNK        -0.4145 
     35 C          27.2361   22.5897    0.7679 C.2       1 UNK         0.5006 
     36 O          27.1818   22.5406   -0.4634 O.2       1 UNK        -0.5103 
     37 C          26.6239   28.0237   -0.2243 C.2       5 UNK         0.5055 
     38 O          25.4083   27.9179   -0.0454 O.2       5 UNK        -0.5220 
     39 N          27.4281   28.7223    0.5808 N.am      6 UNK        -0.4450 
     40 CA         27.0576   29.4245    1.8033 C.3       6 UNK         0.0367 
     41 CB         26.4397   30.7925    1.4574 C.3       6 UNK        -0.1929 
     42 C          28.3224   29.5829    2.6575 C.2       6 UNK         0.5070 
     43 O          29.4285   29.3528    2.1609 O.2       6 UNK        -0.5237 
     44 N          28.1412   29.9614    3.9283 N.am      7 UNK        -0.4739 
     45 CA         29.2307   30.2303    4.8714 C.3       7 UNK         0.0276 
     46 CB         28.6437   30.4125    6.2805 C.3       7 UNK        -0.1927 
     47 C          30.0598   31.4632    4.4659 C.2       7 UNK         0.5013 
     48 O          29.5205   32.4023    3.8740 O.2       7 UNK        -0.5193 
     49 N          31.3471   31.4447    4.8197 N.am      8 UNK        -0.4253 
     50 CA         32.3234   32.4906    4.5342 C.3       8 UNK         0.0242 
     51 CB         32.9415   32.2474    3.1443 C.3       8 UNK        -0.2000 
     52 C          33.3992   32.4585    5.6230 C.2       8 UNK         0.4948 
     53 O          33.5251   31.4511    6.3251 O.2       8 UNK        -0.5275 
     54 N          34.1920   33.5346    5.7152 N.am      9 UNK        -0.4246 
     55 CA         35.2848   33.6963    6.6850 C.3       9 UNK         0.0261 
     56 CB         35.8713   35.1118    6.5579 C.3       9 UNK        -0.1959 
     57 C          36.4015   32.6396    6.5733 C.2       9 UNK         0.5033 
     58 O          37.0622   32.3559    7.5731 O.2       9 UNK        -0.5390 
     59 N          36.5788   32.0647    5.3753 N.am      10 UNK        -0.4215 
     60 CA         37.4783   30.9383    5.1156 C.3       10 UNK         0.0240 
     61 CB         37.6801   30.7927    3.5982 C.3       10 UNK        -0.1982 
     62 C          36.9773   29.6119    5.7187 C.2       10 UNK         0.4970 
     63 O          37.8028   28.7616    6.0546 O.2       10 UNK        -0.4916 
     64 N          35.6526   29.4562    5.8372 N.am      11 UNK        -0.4279 
     65 CA         34.9959   28.2934    6.4487 C.3       11 UNK         0.1003 
     66 C          34.7880   28.4885    7.9730 C.2       11 UNK         0.5709 
     67 N          34.3979   29.6745    8.4244 N.am      11 UNK        -0.7358 
     68 O          34.9876   27.5586    8.7509 O.2       11 UNK        -0.4999 
     69 C69        33.6511   27.9604    5.7530 C.3       12 UNK        -0.0954 
     70 S70        33.8639   27.5214    3.9980 S.3       12 UNK        -0.2268 
     71 C71        32.1762   26.9813    3.6012 C.3       12 UNK         0.0203 
     72 H72        29.2143   26.5231    2.3994 H         1 UNK         0.0888 
     73 H73        29.2499   26.1733    4.1326 H         1 UNK         0.0888 
     74 H74        27.7445   26.6745    3.3603 H         1 UNK         0.0888 
     75 H75        29.5688   24.5286    1.3779 H         1 UNK         0.3017 
     76 H76        28.5203   22.0260    2.3694 H         1 UNK         0.0873 
     77 H77        29.9700   22.7319   -0.2282 H         1 UNK         0.0745 
     78 H78        29.4682   21.1156    0.1977 H         1 UNK         0.0745 
     79 H79        33.4795   22.5903    1.1700 H         1 UNK         0.0705 
     80 H80        32.5377   22.5036   -0.2958 H         1 UNK         0.0705 
     81 H81        32.5304   24.3455    3.0050 H         1 UNK         0.1334 
     82 H82        31.7085   28.1370    1.1758 H         1 UNK         0.1417 
     83 H83        31.9083   24.5905   -1.2303 H         1 UNK         0.1562 
     84 H84        31.5203   26.6541   -2.3077 H         1 UNK         0.0748 
     85 H85        32.3453   27.9874   -1.5395 H         1 UNK         0.0748 
     86 H86        28.8336   26.3592   -0.2427 H         1 UNK         0.0940 
     87 H87        29.0072   26.1127   -1.9561 H         1 UNK         0.0940 
     88 H88        27.3183   28.1511   -2.2050 H         1 UNK         0.0703 
     89 H89        25.8081   25.8758   -1.2890 H         1 UNK         0.3081 
     90 H90        24.8172   25.1843   -4.5476 H         1 UNK         0.0719 
     91 H91        26.6794   23.1636   -3.1800 H         1 UNK         0.0809 
     92 H92        25.4476   22.7794   -4.3836 H         1 UNK         0.0809 
     93 H93        26.8416   23.7477   -4.8301 H         1 UNK         0.0809 
     94 H94        24.5429   23.6777   -2.0968 H         1 UNK         0.2990 
     95 H95        22.4542   25.7281   -0.3630 H         1 UNK         0.0690 
     96 H96        20.5063   24.1991   -0.5797 H         1 UNK         0.0788 
     97 H97        21.1535   23.5474   -2.0868 H         1 UNK         0.0788 
     98 H98        20.6290   25.2229   -1.9989 H         1 UNK         0.0788 
     99 H99        22.6313   22.9124   -0.1867 H         1 UNK         0.2993 
    100 H100       24.1887   22.5967    2.1360 H         1 UNK         0.0949 
    101 H101       23.3190   21.1259    0.3779 H         1 UNK         0.0767 
    102 H102       24.8089   21.2465   -0.5510 H         1 UNK         0.0767 
    103 H103       24.7869   20.4008    0.9925 H         1 UNK         0.0767 
    104 H104       26.3504   22.7855    2.5557 H         1 UNK         0.3013 
    105 H105       28.4263   28.7419    0.3901 H         1 UNK         0.3121 
    106 H106       26.3376   28.8202    2.3594 H         1 UNK         0.0774 
    107 H107       25.5412   30.6819    0.8503 H         1 UNK         0.0815 
    108 H108       27.1412   31.4202    0.9064 H         1 UNK         0.0815 
    109 H109       26.1537   31.3365    2.3582 H         1 UNK         0.0815 
    110 H110       27.2053   30.1607    4.2506 H         1 UNK         0.2987 
    111 H111       29.8886   29.3582    4.8777 H         1 UNK         0.0949 
    112 H112       27.9668   31.2666    6.3278 H         1 UNK         0.0806 
    113 H113       28.0924   29.5277    6.5993 H         1 UNK         0.0806 
    114 H114       29.4325   30.5818    7.0148 H         1 UNK         0.0806 
    115 H115       31.7102   30.6919    5.3906 H         1 UNK         0.3010 
    116 H116       31.8353   33.4674    4.5611 H         1 UNK         0.0829 
    117 H117       32.1787   32.2611    2.3653 H         1 UNK         0.0813 
    118 H118       33.6706   33.0180    2.8920 H         1 UNK         0.0813 
    119 H119       33.4493   31.2830    3.0928 H         1 UNK         0.0813 
    120 H120       34.0250   34.3136    5.0936 H         1 UNK         0.3038 
    121 H121       34.8506   33.5958    7.6821 H         1 UNK         0.0769 
    122 H122       36.2947   35.2870    5.5680 H         1 UNK         0.0811 
    123 H123       36.6685   35.2709    7.2856 H         1 UNK         0.0811 
    124 H124       35.1139   35.8744    6.7405 H         1 UNK         0.0811 
    125 H125       36.0093   32.3836    4.6055 H         1 UNK         0.3204 
    126 H126       38.4460   31.1628    5.5696 H         1 UNK         0.0748 
    127 H127       38.1005   31.7001    3.1641 H         1 UNK         0.0771 
    128 H128       38.3706   29.9784    3.3736 H         1 UNK         0.0771 
    129 H129       36.7428   30.5753    3.0840 H         1 UNK         0.0771 
    130 H130       35.0407   30.2306    5.6170 H         1 UNK         0.2980 
    131 H131       35.6424   27.4215    6.3289 H         1 UNK         0.0545 
    132 H132       34.2664   29.8126    9.4132 H         1 UNK         0.3459 
    133 H133       34.1692   30.4163    7.7691 H         1 UNK         0.3459 
    134 H134       33.1679   27.1189    6.2533 H         1 UNK         0.0616 
    135 H135       32.9584   28.8006    5.8213 H         1 UNK         0.0616 
    136 H136       31.5064   27.8423    3.6289 H         1 UNK         0.0634 
    137 H137       31.8249   26.2883    4.3671 H         1 UNK         0.0634 
@<TRIPOS>BOND
     1    1    2 1    
     2    1   72 1    
     3    1   73 1    
     4    1   74 1    
     5    2    3 2    
     6    2    4 am   BACKBONE|DICT|INTERRES
     7    4    5 1    
     8    4   75 1    
     9    5    6 1    
    10    5   35 1    
    11    5   76 1    
    12    6    7 1    
    13    6   77 1    
    14    6   78 1    
    15    7    8 1    
    16    8    9 1    
    17    8   79 1    
    18    8   80 1    
    19    9   10 ar   
    20    9   14 ar   
    21   10   11 ar   
    22   10   81 1    
    23   11   12 ar   
    24   11   71 1    
    25   12   13 ar   
    26   12   82 1    
    27   13   14 ar   
    28   13   15 1    
    29   14   83 1    
    30   15   16 1    
    31   15   84 1    
    32   15   85 1    
    33   16   17 1    
    34   17   18 1    
    35   17   86 1    
    36   17   87 1    
    37   18   19 1    
    38   18   37 1    
    39   18   88 1    
    40   19   20 am   BACKBONE|DICT|INTERRES
    41   19   89 1    
    42   20   21 2    
    43   20   22 1    
    44   22   23 1    
    45   22   24 1    
    46   22   90 1    
    47   23   91 1    
    48   23   92 1    
    49   23   93 1    
    50   24   25 am   BACKBONE|DICT|INTERRES
    51   24   94 1    
    52   25   26 2    
    53   25   27 1    
    54   27   28 1    
    55   27   29 1    
    56   27   95 1    
    57   28   96 1    
    58   28   97 1    
    59   28   98 1    
    60   29   30 am   BACKBONE|DICT|INTERRES
    61   29   99 1    
    62   30   31 2    
    63   30   32 1    
    64   32   33 1    
    65   32   34 1    
    66   32  100 1    
    67   33  101 1    
    68   33  102 1    
    69   33  103 1    
    70   34   35 am   BACKBONE|DICT|INTERRES
    71   34  104 1    
    72   35   36 2    
    73   37   38 2    
    74   37   39 am   BACKBONE|DICT|INTERRES
    75   39   40 1    
    76   39  105 1    
    77   40   41 1    
    78   40   42 1    
    79   40  106 1    
    80   41  107 1    
    81   41  108 1    
    82   41  109 1    
    83   42   43 2    
    84   42   44 am   BACKBONE|DICT|INTERRES
    85   44   45 1    
    86   44  110 1    
    87   45   46 1    
    88   45   47 1    
    89   45  111 1    
    90   46  112 1    
    91   46  113 1    
    92   46  114 1    
    93   47   48 2    
    94   47   49 am   BACKBONE|DICT|INTERRES
    95   49   50 1    
    96   49  115 1    
    97   50   51 1    
    98   50   52 1    
    99   50  116 1    
   100   51  117 1    
   101   51  118 1    
   102   51  119 1    
   103   52   53 2    
   104   52   54 am   BACKBONE|DICT|INTERRES
   105   54   55 1    
   106   54  120 1    
   107   55   56 1    
   108   55   57 1    
   109   55  121 1    
   110   56  122 1    
   111   56  123 1    
   112   56  124 1    
   113   57   58 2    
   114   57   59 am   BACKBONE|DICT|INTERRES
   115   59   60 1    
   116   59  125 1    
   117   60   61 1    
   118   60   62 1    
   119   60  126 1    
   120   61  127 1    
   121   61  128 1    
   122   61  129 1    
   123   62   63 2    
   124   62   64 am   BACKBONE|DICT|INTERRES
   125   64   65 1    
   126   64  130 1    
   127   65   66 1    
   128   65   69 1    
   129   65  131 1    
   130   66   67 am   BACKBONE|DICT|INTERRES
   131   66   68 2    
   132   67  132 1    
   133   67  133 1    
   134   69   70 1    
   135   69  134 1    
   136   69  135 1    
   137   70   71 1    
   138   71  136 1    
   139   71  137 1    
@<TRIPOS>SUBSTRUCTURE
     1 UNK         1 GROUP             0       ****    0 ROOT    
