@<TRIPOS>MOLECULE
3R136
137   139    1
SMALL
USER_CHARGES


@<TRIPOS>ATOM
      1 CA         30.6759   27.2193   -2.6085 C.3       0 UNK        -0.1979 
      2 C          29.8037   26.1266   -2.0091 C.2       0 UNK         0.4864 
      3 O          28.6063   26.3436   -1.8108 O.2       0 UNK        -0.5359 
      4 N          30.3983   24.9660   -1.6966 N.am      1 UNK        -0.4318 
      5 CA         29.7235   23.7883   -1.1339 C.3       1 UNK         0.0824 
      6 C6         30.7475   22.7089   -0.6981 C.3       12 UNK        -0.0944 
      7 S7         31.6523   23.2292    0.7974 S.3       12 UNK        -0.2672 
      8 C8         30.7108   22.3621    2.0938 C.3       12 UNK         0.0333 
      9 C9         30.9802   22.9584    3.4669 C.ar      12 UNK        -0.0807 
     10 C10        32.1863   22.6957    4.1233 C.ar      12 UNK        -0.0894 
     11 C11        32.4525   23.2707    5.3697 C.ar      12 UNK        -0.0804 
     12 C12        31.4880   24.0827    5.9733 C.ar      12 UNK        -0.0824 
     13 C13        30.2856   24.3690    5.3208 C.ar      12 UNK        -0.0762 
     14 C14        30.0308   23.7884    4.0737 C.ar      12 UNK        -0.0782 
     15 C15        29.2756   25.3211    5.9512 C.3       12 UNK         0.0230 
     16 S16        30.0284   26.9388    6.3397 S.3       12 UNK        -0.2608 
     17 C17        28.6229   28.0896    6.1474 C.3       12 UNK        -0.0989 
     18 CA         28.8082   29.0071    4.9135 C.3       5 UNK         0.0716 
     19 N          28.9410   28.2333    3.6816 N.am      5 UNK        -0.4135 
     20 C          29.2209   28.7010    2.4625 C.2       4 UNK         0.5031 
     21 O          29.3475   29.8977    2.1943 O.2       4 UNK        -0.5229 
     22 CA         29.4141   27.6508    1.3565 C.3       4 UNK         0.0329 
     23 CB         30.5109   26.6385    1.7308 C.3       4 UNK        -0.2001 
     24 N          28.1870   26.9625    0.9338 N.am      4 UNK        -0.4303 
     25 C          27.3143   26.2555    1.6668 C.2       3 UNK         0.5044 
     26 O          27.4293   26.0462    2.8742 O.2       3 UNK        -0.5152 
     27 CA         26.1154   25.6566    0.9092 C.3       3 UNK         0.0319 
     28 CB         25.4211   26.6842   -0.0037 C.3       3 UNK        -0.2001 
     29 N          26.4973   24.4787    0.1270 N.am      3 UNK        -0.4354 
     30 C          26.8301   23.2940    0.6597 C.2       2 UNK         0.4964 
     31 O          26.8215   23.0605    1.8677 O.2       2 UNK        -0.5047 
     32 CA         27.2524   22.1628   -0.2957 C.3       2 UNK         0.0288 
     33 CB         26.1433   21.0994   -0.3668 C.3       2 UNK        -0.2113 
     34 N          27.5874   22.5701   -1.6669 N.am      2 UNK        -0.4145 
     35 C          28.6746   23.2154   -2.1222 C.2       1 UNK         0.5006 
     36 O          28.8631   23.3460   -3.3331 O.2       1 UNK        -0.5103 
     37 C          27.6671   30.0326    4.7836 C.2       5 UNK         0.5055 
     38 O          26.5072   29.6377    4.6537 O.2       5 UNK        -0.5220 
     39 N          28.0396   31.3212    4.7692 N.am      6 UNK        -0.4450 
     40 CA         27.1991   32.5049    4.5335 C.3       6 UNK         0.0367 
     41 CB         26.0761   32.6195    5.5866 C.3       6 UNK        -0.1929 
     42 C          26.6584   32.6393    3.0923 C.2       6 UNK         0.5070 
     43 O          25.8998   33.5735    2.8295 O.2       6 UNK        -0.5237 
     44 N          27.0666   31.7478    2.1793 N.am      7 UNK        -0.4739 
     45 CA         26.7337   31.7923    0.7532 C.3       7 UNK         0.0276 
     46 CB         26.3482   30.3826    0.2755 C.3       7 UNK        -0.1927 
     47 C          27.9093   32.3373   -0.0715 C.2       7 UNK         0.5013 
     48 O          27.6799   33.0656   -1.0378 O.2       7 UNK        -0.5193 
     49 N          29.1380   31.9875    0.3283 N.am      8 UNK        -0.4253 
     50 CA         30.3873   32.4319   -0.2807 C.3       8 UNK         0.0242 
     51 CB         30.9118   31.3560   -1.2516 C.3       8 UNK        -0.2000 
     52 C          31.3959   32.7613    0.8250 C.2       8 UNK         0.4948 
     53 O          31.7316   33.9315    1.0108 O.2       8 UNK        -0.5275 
     54 N          31.8391   31.7302    1.5515 N.am      9 UNK        -0.4246 
     55 CA         32.7916   31.7810    2.6565 C.3       9 UNK         0.0261 
     56 CB         34.2096   32.0985    2.1423 C.3       9 UNK        -0.1959 
     57 C          32.7662   30.4106    3.3389 C.2       9 UNK         0.5033 
     58 O          32.4336   29.4206    2.6814 O.2       9 UNK        -0.5390 
     59 N          33.1286   30.3663    4.6279 N.am      10 UNK        -0.4215 
     60 CA         33.1641   29.1491    5.4452 C.3       10 UNK         0.0240 
     61 CB         33.5908   29.4992    6.8802 C.3       10 UNK        -0.1982 
     62 C          34.0778   28.0689    4.8393 C.2       10 UNK         0.4970 
     63 O          35.2832   28.2947    4.7129 O.2       10 UNK        -0.4916 
     64 N          33.4650   26.9462    4.4485 N.am      11 UNK        -0.4279 
     65 CA         34.0765   25.8257    3.7151 C.3       11 UNK         0.1003 
     66 C          34.5493   26.1682    2.2675 C.2       11 UNK         0.5709 
     67 N          34.1444   27.2862    1.6748 N.am      11 UNK        -0.7358 
     68 O          35.2803   25.3940    1.6538 O.2       11 UNK        -0.4999 
     69 C69        35.1609   25.0500    4.5269 C.3       12 UNK        -0.0954 
     70 S70        34.6984   24.6363    6.2464 S.3       12 UNK        -0.2268 
     71 C71        33.7990   23.0623    6.0465 C.3       12 UNK         0.0203 
     72 H72        30.3316   27.4629   -3.6131 H         1 UNK         0.0888 
     73 H73        30.6180   28.1212   -2.0004 H         1 UNK         0.0888 
     74 H74        31.7217   26.9187   -2.6701 H         1 UNK         0.0888 
     75 H75        31.3824   24.8479   -1.8879 H         1 UNK         0.3017 
     76 H76        29.2070   24.1484   -0.2467 H         1 UNK         0.0873 
     77 H77        30.2753   21.7457   -0.5019 H         1 UNK         0.0745 
     78 H78        31.4683   22.5202   -1.4958 H         1 UNK         0.0745 
     79 H79        29.6454   22.4180    1.8701 H         1 UNK         0.0705 
     80 H80        30.9746   21.3035    2.0884 H         1 UNK         0.0705 
     81 H81        32.9294   22.0720    3.6452 H         1 UNK         0.1334 
     82 H82        31.6964   24.5345    6.9337 H         1 UNK         0.1417 
     83 H83        29.0999   23.9997    3.5628 H         1 UNK         0.1562 
     84 H84        28.8813   24.8790    6.8670 H         1 UNK         0.0748 
     85 H85        28.4248   25.4611    5.2839 H         1 UNK         0.0748 
     86 H86        28.5567   28.6886    7.0576 H         1 UNK         0.0940 
     87 H87        27.6856   27.5330    6.0843 H         1 UNK         0.0940 
     88 H88        29.7463   29.5514    5.0423 H         1 UNK         0.0703 
     89 H89        28.7090   27.2481    3.7452 H         1 UNK         0.3081 
     90 H90        29.7671   28.1976    0.4811 H         1 UNK         0.0719 
     91 H91        30.1885   25.9546    2.5115 H         1 UNK         0.0809 
     92 H92        31.4040   27.1414    2.0954 H         1 UNK         0.0809 
     93 H93        30.8110   26.0455    0.8700 H         1 UNK         0.0809 
     94 H94        28.0277   26.9791   -0.0705 H         1 UNK         0.2990 
     95 H95        25.3855   25.3431    1.6590 H         1 UNK         0.0690 
     96 H96        24.5025   26.2755   -0.4250 H         1 UNK         0.0788 
     97 H97        26.0531   26.9988   -0.8349 H         1 UNK         0.0788 
     98 H98        25.1448   27.5771    0.5577 H         1 UNK         0.0788 
     99 H99        26.5443   24.5938   -0.8757 H         1 UNK         0.2993 
    100 H100       28.1257   21.6842    0.1463 H         1 UNK         0.0949 
    101 H101       26.4566   20.2362   -0.9548 H         1 UNK         0.0767 
    102 H102       25.8860   20.7314    0.6278 H         1 UNK         0.0767 
    103 H103       25.2303   21.4968   -0.8125 H         1 UNK         0.0767 
    104 H104       26.9338   22.2497   -2.3667 H         1 UNK         0.3013 
    105 H105       29.0272   31.5198    4.8550 H         1 UNK         0.3121 
    106 H106       27.8595   33.3619    4.6745 H         1 UNK         0.0774 
    107 H107       25.5681   33.5817    5.5122 H         1 UNK         0.0815 
    108 H108       25.3177   31.8466    5.4598 H         1 UNK         0.0815 
    109 H109       26.4706   32.5417    6.5995 H         1 UNK         0.0815 
    110 H110       27.7184   31.0262    2.4672 H         1 UNK         0.2987 
    111 H111       25.8774   32.4494    0.5851 H         1 UNK         0.0949 
    112 H112       27.1724   29.6770    0.3766 H         1 UNK         0.0806 
    113 H113       25.5021   29.9950    0.8427 H         1 UNK         0.0806 
    114 H114       26.0570   30.3935   -0.7757 H         1 UNK         0.0806 
    115 H115       29.2289   31.3615    1.1263 H         1 UNK         0.3010 
    116 H116       30.2197   33.3516   -0.8458 H         1 UNK         0.0829 
    117 H117       30.2280   31.2188   -2.0894 H         1 UNK         0.0813 
    118 H118       31.8791   31.6421   -1.6666 H         1 UNK         0.0813 
    119 H119       31.0353   30.3880   -0.7650 H         1 UNK         0.0813 
    120 H120       31.4817   30.7954    1.3834 H         1 UNK         0.3038 
    121 H121       32.4690   32.5434    3.3683 H         1 UNK         0.0769 
    122 H122       34.2586   33.0830    1.6775 H         1 UNK         0.0811 
    123 H123       34.5417   31.3645    1.4068 H         1 UNK         0.0811 
    124 H124       34.9339   32.0934    2.9577 H         1 UNK         0.0811 
    125 H125       33.4288   31.2190    5.0777 H         1 UNK         0.3204 
    126 H126       32.1445   28.7637    5.4849 H         1 UNK         0.0748 
    127 H127       32.8976   30.2030    7.3412 H         1 UNK         0.0771 
    128 H128       33.6090   28.6066    7.5074 H         1 UNK         0.0771 
    129 H129       34.5886   29.9389    6.9096 H         1 UNK         0.0771 
    130 H130       32.4694   26.8662    4.5946 H         1 UNK         0.2980 
    131 H131       33.2494   25.1405    3.5447 H         1 UNK         0.0545 
    132 H132       34.4575   27.4802    0.7382 H         1 UNK         0.3459 
    133 H133       33.5371   27.9484    2.1493 H         1 UNK         0.3459 
    134 H134       35.4257   24.1234    4.0147 H         1 UNK         0.0616 
    135 H135       36.0790   25.6377    4.5725 H         1 UNK         0.0616 
    136 H136       33.6366   22.6217    7.0309 H         1 UNK         0.0634 
    137 H137       34.4189   22.3581    5.4895 H         1 UNK         0.0634 
@<TRIPOS>BOND
     1    1    2 1    
     2    1   72 1    
     3    1   73 1    
     4    1   74 1    
     5    2    3 2    
     6    2    4 am   BACKBONE|DICT|INTERRES
     7    4    5 1    
     8    4   75 1    
     9    5    6 1    
    10    5   35 1    
    11    5   76 1    
    12    6    7 1    
    13    6   77 1    
    14    6   78 1    
    15    7    8 1    
    16    8    9 1    
    17    8   79 1    
    18    8   80 1    
    19    9   10 ar   
    20    9   14 ar   
    21   10   11 ar   
    22   10   81 1    
    23   11   12 ar   
    24   11   71 1    
    25   12   13 ar   
    26   12   82 1    
    27   13   14 ar   
    28   13   15 1    
    29   14   83 1    
    30   15   16 1    
    31   15   84 1    
    32   15   85 1    
    33   16   17 1    
    34   17   18 1    
    35   17   86 1    
    36   17   87 1    
    37   18   19 1    
    38   18   37 1    
    39   18   88 1    
    40   19   20 am   BACKBONE|DICT|INTERRES
    41   19   89 1    
    42   20   21 2    
    43   20   22 1    
    44   22   23 1    
    45   22   24 1    
    46   22   90 1    
    47   23   91 1    
    48   23   92 1    
    49   23   93 1    
    50   24   25 am   BACKBONE|DICT|INTERRES
    51   24   94 1    
    52   25   26 2    
    53   25   27 1    
    54   27   28 1    
    55   27   29 1    
    56   27   95 1    
    57   28   96 1    
    58   28   97 1    
    59   28   98 1    
    60   29   30 am   BACKBONE|DICT|INTERRES
    61   29   99 1    
    62   30   31 2    
    63   30   32 1    
    64   32   33 1    
    65   32   34 1    
    66   32  100 1    
    67   33  101 1    
    68   33  102 1    
    69   33  103 1    
    70   34   35 am   BACKBONE|DICT|INTERRES
    71   34  104 1    
    72   35   36 2    
    73   37   38 2    
    74   37   39 am   BACKBONE|DICT|INTERRES
    75   39   40 1    
    76   39  105 1    
    77   40   41 1    
    78   40   42 1    
    79   40  106 1    
    80   41  107 1    
    81   41  108 1    
    82   41  109 1    
    83   42   43 2    
    84   42   44 am   BACKBONE|DICT|INTERRES
    85   44   45 1    
    86   44  110 1    
    87   45   46 1    
    88   45   47 1    
    89   45  111 1    
    90   46  112 1    
    91   46  113 1    
    92   46  114 1    
    93   47   48 2    
    94   47   49 am   BACKBONE|DICT|INTERRES
    95   49   50 1    
    96   49  115 1    
    97   50   51 1    
    98   50   52 1    
    99   50  116 1    
   100   51  117 1    
   101   51  118 1    
   102   51  119 1    
   103   52   53 2    
   104   52   54 am   BACKBONE|DICT|INTERRES
   105   54   55 1    
   106   54  120 1    
   107   55   56 1    
   108   55   57 1    
   109   55  121 1    
   110   56  122 1    
   111   56  123 1    
   112   56  124 1    
   113   57   58 2    
   114   57   59 am   BACKBONE|DICT|INTERRES
   115   59   60 1    
   116   59  125 1    
   117   60   61 1    
   118   60   62 1    
   119   60  126 1    
   120   61  127 1    
   121   61  128 1    
   122   61  129 1    
   123   62   63 2    
   124   62   64 am   BACKBONE|DICT|INTERRES
   125   64   65 1    
   126   64  130 1    
   127   65   66 1    
   128   65   69 1    
   129   65  131 1    
   130   66   67 am   BACKBONE|DICT|INTERRES
   131   66   68 2    
   132   67  132 1    
   133   67  133 1    
   134   69   70 1    
   135   69  134 1    
   136   69  135 1    
   137   70   71 1    
   138   71  136 1    
   139   71  137 1    
@<TRIPOS>SUBSTRUCTURE
     1 UNK         1 GROUP             0       ****    0 ROOT    
