@<TRIPOS>MOLECULE
3R136
137   139    1
SMALL
USER_CHARGES


@<TRIPOS>ATOM
      1 CA         27.0479   21.9024   -0.7558 C.3       0 UNK        -0.1979 
      2 C          27.6981   23.2778   -0.7482 C.2       0 UNK         0.4864 
      3 O          27.0273   24.2637   -0.4433 O.2       0 UNK        -0.5359 
      4 N          28.9985   23.3435   -1.0694 N.am      1 UNK        -0.4318 
      5 CA         29.8091   24.5656   -1.1523 C.3       1 UNK         0.0824 
      6 C6         29.8631   25.3330    0.2013 C.3       12 UNK        -0.0944 
      7 S7         31.4020   26.2759    0.4564 S.3       12 UNK        -0.2672 
      8 C8         32.5423   24.9986    1.0749 C.3       12 UNK         0.0333 
      9 C9         32.2640   24.6102    2.5206 C.ar      12 UNK        -0.0807 
     10 C10        32.8670   25.3163    3.5668 C.ar      12 UNK        -0.0894 
     11 C11        32.6739   24.9265    4.9006 C.ar      12 UNK        -0.0804 
     12 C12        31.8463   23.8311    5.1688 C.ar      12 UNK        -0.0824 
     13 C13        31.2264   23.1257    4.1330 C.ar      12 UNK        -0.0762 
     14 C14        31.4497   23.5121    2.8103 C.ar      12 UNK        -0.0782 
     15 C15        30.3465   21.9238    4.4447 C.3       12 UNK         0.0230 
     16 S16        28.7879   22.4134    5.2450 S.3       12 UNK        -0.2608 
     17 C17        27.8459   23.1562    3.8618 C.3       12 UNK        -0.0989 
     18 CA         27.9783   24.6938    3.6590 C.3       5 UNK         0.0716 
     19 N          26.9241   25.1891    2.7712 N.am      5 UNK        -0.4135 
     20 C          26.8659   26.4144    2.2357 C.2       4 UNK         0.5031 
     21 O          27.7315   27.2831    2.3821 O.2       4 UNK        -0.5229 
     22 CA         25.6153   26.7277    1.4087 C.3       4 UNK         0.0329 
     23 CB         24.5941   27.5291    2.2359 C.3       4 UNK        -0.2001 
     24 N          26.0029   27.4803    0.2194 N.am      4 UNK        -0.4303 
     25 C          25.3092   27.5091   -0.9268 C.2       3 UNK         0.5044 
     26 O          24.2332   26.9335   -1.0934 O.2       3 UNK        -0.5152 
     27 CA         25.9169   28.3002   -2.0923 C.3       3 UNK         0.0319 
     28 CB         25.6707   29.8138   -1.9303 C.3       3 UNK        -0.2001 
     29 N          27.3401   27.9925   -2.2446 N.am      3 UNK        -0.4354 
     30 C          28.0711   28.2314   -3.3423 C.2       2 UNK         0.4964 
     31 O          27.6400   28.8178   -4.3358 O.2       2 UNK        -0.5047 
     32 CA         29.5283   27.7273   -3.3538 C.3       2 UNK         0.0288 
     33 CB         30.5213   28.8933   -3.2074 C.3       2 UNK        -0.2113 
     34 N          29.8181   26.7230   -2.3266 N.am      2 UNK        -0.4145 
     35 C          29.4041   25.4493   -2.3564 C.2       1 UNK         0.5006 
     36 O          28.7560   24.9712   -3.2915 O.2       1 UNK        -0.5103 
     37 C          27.9928   25.5045    4.9713 C.2       5 UNK         0.5055 
     38 O          26.9296   25.7576    5.5443 O.2       5 UNK        -0.5220 
     39 N          29.2042   25.8825    5.4052 N.am      6 UNK        -0.4450 
     40 CA         29.5069   26.6721    6.6033 C.3       6 UNK         0.0367 
     41 CB         29.1719   25.8771    7.8829 C.3       6 UNK        -0.1929 
     42 C          28.8821   28.0820    6.5819 C.2       6 UNK         0.5070 
     43 O          28.5151   28.6055    7.6355 O.2       6 UNK        -0.5237 
     44 N          28.7726   28.6701    5.3841 N.am      7 UNK        -0.4739 
     45 CA         28.2061   29.9996    5.1620 C.3       7 UNK         0.0276 
     46 CB         26.6712   29.9179    5.0799 C.3       7 UNK        -0.1927 
     47 C          28.7909   30.6614    3.9097 C.2       7 UNK         0.5013 
     48 O          29.0826   31.8578    3.9501 O.2       7 UNK        -0.5193 
     49 N          28.9426   29.8923    2.8233 N.am      8 UNK        -0.4253 
     50 CA         29.5246   30.3579    1.5650 C.3       8 UNK         0.0242 
     51 CB         28.8286   29.6227    0.4108 C.3       8 UNK        -0.2000 
     52 C          31.0438   30.1278    1.5190 C.2       8 UNK         0.4948 
     53 O          31.5954   29.4040    2.3530 O.2       8 UNK        -0.5275 
     54 N          31.6789   30.7397    0.5076 N.am      9 UNK        -0.4246 
     55 CA         33.1133   30.6898    0.2021 C.3       9 UNK         0.0261 
     56 CB         33.5160   29.2741   -0.2745 C.3       9 UNK        -0.1959 
     57 C          33.9630   31.2306    1.3695 C.2       9 UNK         0.5033 
     58 O          33.5837   32.2350    1.9772 O.2       9 UNK        -0.5390 
     59 N          35.0832   30.5625    1.6779 N.am      10 UNK        -0.4215 
     60 CA         35.9838   30.8926    2.7884 C.3       10 UNK         0.0240 
     61 CB         37.2349   30.0027    2.7035 C.3       10 UNK        -0.1982 
     62 C          35.3332   30.7726    4.1802 C.2       10 UNK         0.4970 
     63 O          35.8065   31.4165    5.1175 O.2       10 UNK        -0.4916 
     64 N          34.2683   29.9688    4.2862 N.am      11 UNK        -0.4279 
     65 CA         33.4477   29.8106    5.4934 C.3       11 UNK         0.1003 
     66 C          32.3002   30.8571    5.6047 C.2       11 UNK         0.5709 
     67 N          32.1465   31.7923    4.6741 N.am      11 UNK        -0.7358 
     68 O          31.5418   30.8320    6.5705 O.2       11 UNK        -0.4999 
     69 C69        32.9219   28.3579    5.6328 C.3       12 UNK        -0.0954 
     70 S70        34.2799   27.1443    5.7208 S.3       12 UNK        -0.2268 
     71 C71        33.3749   25.6014    6.0841 C.3       12 UNK         0.0203 
     72 H72        26.6524   21.6701    0.2325 H         1 UNK         0.0888 
     73 H73        26.2224   21.8836   -1.4668 H         1 UNK         0.0888 
     74 H74        27.7525   21.1185   -1.0325 H         1 UNK         0.0888 
     75 H75        29.4743   22.4964   -1.3470 H         1 UNK         0.3017 
     76 H76        30.8149   24.2118   -1.3825 H         1 UNK         0.0873 
     77 H77        29.0181   26.0150    0.2965 H         1 UNK         0.0745 
     78 H78        29.7517   24.6376    1.0292 H         1 UNK         0.0745 
     79 H79        32.4979   24.1210    0.4287 H         1 UNK         0.0705 
     80 H80        33.5615   25.3790    0.9910 H         1 UNK         0.0705 
     81 H81        33.5082   26.1513    3.3240 H         1 UNK         0.1334 
     82 H82        31.6908   23.5139    6.1916 H         1 UNK         0.1417 
     83 H83        30.9984   22.9499    2.0042 H         1 UNK         0.1562 
     84 H84        30.8872   21.2531    5.1141 H         1 UNK         0.0748 
     85 H85        30.1308   21.3450    3.5452 H         1 UNK         0.0748 
     86 H86        26.8002   22.9068    4.0511 H         1 UNK         0.0940 
     87 H87        28.1027   22.6403    2.9351 H         1 UNK         0.0940 
     88 H88        28.9272   24.8806    3.1549 H         1 UNK         0.0703 
     89 H89        26.1535   24.5597    2.6050 H         1 UNK         0.3081 
     90 H90        25.1625   25.7832    1.0980 H         1 UNK         0.0719 
     91 H91        24.9716   28.5206    2.4865 H         1 UNK         0.0809 
     92 H92        23.6580   27.6577    1.6923 H         1 UNK         0.0809 
     93 H93        24.3584   27.0202    3.1716 H         1 UNK         0.0809 
     94 H94        26.8723   27.9857    0.3111 H         1 UNK         0.2990 
     95 H95        25.4069   27.9688   -2.9997 H         1 UNK         0.0690 
     96 H96        25.9888   30.3685   -2.8129 H         1 UNK         0.0788 
     97 H97        26.1965   30.2273   -1.0713 H         1 UNK         0.0788 
     98 H98        24.6087   30.0204   -1.7904 H         1 UNK         0.0788 
     99 H99        27.7527   27.4266   -1.5182 H         1 UNK         0.2993 
    100 H100       29.6920   27.2686   -4.3316 H         1 UNK         0.0949 
    101 H101       30.4731   29.3509   -2.2204 H         1 UNK         0.0767 
    102 H102       31.5463   28.5586   -3.3682 H         1 UNK         0.0767 
    103 H103       30.3208   29.6753   -3.9413 H         1 UNK         0.0767 
    104 H104       30.3807   27.0174   -1.5376 H         1 UNK         0.3013 
    105 H105       30.0086   25.5989    4.8609 H         1 UNK         0.3121 
    106 H106       30.5834   26.8249    6.5935 H         1 UNK         0.0774 
    107 H107       29.5325   26.3960    8.7718 H         1 UNK         0.0815 
    108 H108       28.0971   25.7374    8.0021 H         1 UNK         0.0815 
    109 H109       29.6390   24.8923    7.8714 H         1 UNK         0.0815 
    110 H110       29.1156   28.1805    4.5695 H         1 UNK         0.2987 
    111 H111       28.4759   30.6396    6.0056 H         1 UNK         0.0949 
    112 H112       26.2361   30.8938    4.8604 H         1 UNK         0.0806 
    113 H113       26.3509   29.2292    4.2982 H         1 UNK         0.0806 
    114 H114       26.2415   29.5753    6.0213 H         1 UNK         0.0806 
    115 H115       28.6361   28.9236    2.8349 H         1 UNK         0.3010 
    116 H116       29.3352   31.4279    1.4536 H         1 UNK         0.0829 
    117 H117       27.7477   29.6731    0.5253 H         1 UNK         0.0813 
    118 H118       29.0690   30.0783   -0.5491 H         1 UNK         0.0813 
    119 H119       29.1217   28.5732    0.3681 H         1 UNK         0.0813 
    120 H120       31.1360   31.3440   -0.0925 H         1 UNK         0.3038 
    121 H121       33.2725   31.3767   -0.6303 H         1 UNK         0.0769 
    122 H122       33.4665   28.5412    0.5320 H         1 UNK         0.0811 
    123 H123       34.5280   29.2603   -0.6806 H         1 UNK         0.0811 
    124 H124       32.8557   28.9264   -1.0688 H         1 UNK         0.0811 
    125 H125       35.3186   29.7480    1.1295 H         1 UNK         0.3204 
    126 H126       36.2930   31.9327    2.6650 H         1 UNK         0.0748 
    127 H127       37.9417   30.2463    3.4982 H         1 UNK         0.0771 
    128 H128       36.9857   28.9453    2.8030 H         1 UNK         0.0771 
    129 H129       37.7573   30.1391    1.7563 H         1 UNK         0.0771 
    130 H130       33.9115   29.5126    3.4587 H         1 UNK         0.2980 
    131 H131       34.0821   29.9981    6.3617 H         1 UNK         0.0545 
    132 H132       31.3655   32.4254    4.7481 H         1 UNK         0.3459 
    133 H133       32.7424   31.8229    3.8560 H         1 UNK         0.3459 
    134 H134       32.2613   28.1007    4.8026 H         1 UNK         0.0616 
    135 H135       32.3367   28.2631    6.5478 H         1 UNK         0.0616 
    136 H136       32.6588   25.7902    6.8842 H         1 UNK         0.0634 
    137 H137       34.0963   24.8906    6.4892 H         1 UNK         0.0634 
@<TRIPOS>BOND
     1    1    2 1    
     2    1   72 1    
     3    1   73 1    
     4    1   74 1    
     5    2    3 2    
     6    2    4 am   BACKBONE|DICT|INTERRES
     7    4    5 1    
     8    4   75 1    
     9    5    6 1    
    10    5   35 1    
    11    5   76 1    
    12    6    7 1    
    13    6   77 1    
    14    6   78 1    
    15    7    8 1    
    16    8    9 1    
    17    8   79 1    
    18    8   80 1    
    19    9   10 ar   
    20    9   14 ar   
    21   10   11 ar   
    22   10   81 1    
    23   11   12 ar   
    24   11   71 1    
    25   12   13 ar   
    26   12   82 1    
    27   13   14 ar   
    28   13   15 1    
    29   14   83 1    
    30   15   16 1    
    31   15   84 1    
    32   15   85 1    
    33   16   17 1    
    34   17   18 1    
    35   17   86 1    
    36   17   87 1    
    37   18   19 1    
    38   18   37 1    
    39   18   88 1    
    40   19   20 am   BACKBONE|DICT|INTERRES
    41   19   89 1    
    42   20   21 2    
    43   20   22 1    
    44   22   23 1    
    45   22   24 1    
    46   22   90 1    
    47   23   91 1    
    48   23   92 1    
    49   23   93 1    
    50   24   25 am   BACKBONE|DICT|INTERRES
    51   24   94 1    
    52   25   26 2    
    53   25   27 1    
    54   27   28 1    
    55   27   29 1    
    56   27   95 1    
    57   28   96 1    
    58   28   97 1    
    59   28   98 1    
    60   29   30 am   BACKBONE|DICT|INTERRES
    61   29   99 1    
    62   30   31 2    
    63   30   32 1    
    64   32   33 1    
    65   32   34 1    
    66   32  100 1    
    67   33  101 1    
    68   33  102 1    
    69   33  103 1    
    70   34   35 am   BACKBONE|DICT|INTERRES
    71   34  104 1    
    72   35   36 2    
    73   37   38 2    
    74   37   39 am   BACKBONE|DICT|INTERRES
    75   39   40 1    
    76   39  105 1    
    77   40   41 1    
    78   40   42 1    
    79   40  106 1    
    80   41  107 1    
    81   41  108 1    
    82   41  109 1    
    83   42   43 2    
    84   42   44 am   BACKBONE|DICT|INTERRES
    85   44   45 1    
    86   44  110 1    
    87   45   46 1    
    88   45   47 1    
    89   45  111 1    
    90   46  112 1    
    91   46  113 1    
    92   46  114 1    
    93   47   48 2    
    94   47   49 am   BACKBONE|DICT|INTERRES
    95   49   50 1    
    96   49  115 1    
    97   50   51 1    
    98   50   52 1    
    99   50  116 1    
   100   51  117 1    
   101   51  118 1    
   102   51  119 1    
   103   52   53 2    
   104   52   54 am   BACKBONE|DICT|INTERRES
   105   54   55 1    
   106   54  120 1    
   107   55   56 1    
   108   55   57 1    
   109   55  121 1    
   110   56  122 1    
   111   56  123 1    
   112   56  124 1    
   113   57   58 2    
   114   57   59 am   BACKBONE|DICT|INTERRES
   115   59   60 1    
   116   59  125 1    
   117   60   61 1    
   118   60   62 1    
   119   60  126 1    
   120   61  127 1    
   121   61  128 1    
   122   61  129 1    
   123   62   63 2    
   124   62   64 am   BACKBONE|DICT|INTERRES
   125   64   65 1    
   126   64  130 1    
   127   65   66 1    
   128   65   69 1    
   129   65  131 1    
   130   66   67 am   BACKBONE|DICT|INTERRES
   131   66   68 2    
   132   67  132 1    
   133   67  133 1    
   134   69   70 1    
   135   69  134 1    
   136   69  135 1    
   137   70   71 1    
   138   71  136 1    
   139   71  137 1    
@<TRIPOS>SUBSTRUCTURE
     1 UNK         1 GROUP             0       ****    0 ROOT    
