@<TRIPOS>MOLECULE
3R136
137   139    1
SMALL
USER_CHARGES


@<TRIPOS>ATOM
      1 CA         27.8904   23.5104   -3.5268 C.3       0 UNK        -0.1979 
      2 C          28.7449   23.1109   -2.3335 C.2       0 UNK         0.4864 
      3 O          29.9401   22.8620   -2.4937 O.2       0 UNK        -0.5359 
      4 N          28.1422   23.0431   -1.1420 N.am      1 UNK        -0.4318 
      5 CA         28.8021   22.7224    0.1186 C.3       1 UNK         0.0824 
      6 C6         28.9314   21.1906    0.3196 C.3       12 UNK        -0.0944 
      7 S7         29.8211   20.6629    1.8239 S.3       12 UNK        -0.2672 
      8 C8         31.5522   21.0968    1.4449 C.3       12 UNK         0.0333 
      9 C9         31.8798   22.5237    1.8659 C.ar      12 UNK        -0.0807 
     10 C10        31.8080   22.8827    3.2164 C.ar      12 UNK        -0.0894 
     11 C11        32.0804   24.1919    3.6179 C.ar      12 UNK        -0.0804 
     12 C12        32.4345   25.1431    2.6578 C.ar      12 UNK        -0.0824 
     13 C13        32.5193   24.8007    1.3056 C.ar      12 UNK        -0.0762 
     14 C14        32.2562   23.4824    0.9173 C.ar      12 UNK        -0.0782 
     15 C15        32.9224   25.8566    0.2799 C.3       12 UNK         0.0230 
     16 S16        31.7025   26.0736   -1.0595 S.3       12 UNK        -0.2608 
     17 C17        30.1830   26.4650   -0.1357 C.3       12 UNK        -0.0989 
     18 CA         29.1023   27.1556   -1.0156 C.3       5 UNK         0.0716 
     19 N          27.7585   26.7323   -0.6161 N.am      5 UNK        -0.4135 
     20 C          26.7131   26.5739   -1.4411 C.2       4 UNK         0.5031 
     21 O          26.7984   26.6480   -2.6676 O.2       4 UNK        -0.5229 
     22 CA         25.3367   26.2727   -0.8131 C.3       4 UNK         0.0329 
     23 CB         24.7606   24.9411   -1.3262 C.3       4 UNK        -0.2001 
     24 N          25.3729   26.2514    0.6524 N.am      4 UNK        -0.4303 
     25 C          25.1628   27.3260    1.4277 C.2       3 UNK         0.5044 
     26 O          24.8176   28.4231    0.9896 O.2       3 UNK        -0.5152 
     27 CA         25.3839   27.1726    2.9463 C.3       3 UNK         0.0319 
     28 CB         24.0369   27.0330    3.6734 C.3       3 UNK        -0.2001 
     29 N          26.2513   26.0530    3.3269 N.am      3 UNK        -0.4354 
     30 C          27.5434   25.9287    2.9949 C.2       2 UNK         0.4964 
     31 O          28.1531   26.7590    2.3205 O.2       2 UNK        -0.5047 
     32 CA         28.2723   24.6437    3.4342 C.3       2 UNK         0.0288 
     33 CB         27.4514   23.7308    4.3726 C.3       2 UNK        -0.2113 
     34 N          28.7553   23.8770    2.2800 N.am      2 UNK        -0.4145 
     35 C          28.0307   23.4442    1.2364 C.2       1 UNK         0.5006 
     36 O          26.8146   23.6239    1.1144 O.2       1 UNK        -0.5103 
     37 C          29.1868   28.7001   -0.9900 C.2       5 UNK         0.5055 
     38 O          28.1600   29.3829   -1.0583 O.2       5 UNK        -0.5220 
     39 N          30.4054   29.2432   -0.8650 N.am      6 UNK        -0.4450 
     40 CA         30.6771   30.6658   -0.6327 C.3       6 UNK         0.0367 
     41 CB         32.1568   30.9492   -0.9516 C.3       6 UNK        -0.1929 
     42 C          30.3085   31.0588    0.8116 C.2       6 UNK         0.5070 
     43 O          31.1980   31.2687    1.6367 O.2       6 UNK        -0.5237 
     44 N          29.0009   31.0926    1.1016 N.am      7 UNK        -0.4739 
     45 CA         28.3725   31.1552    2.4299 C.3       7 UNK         0.0276 
     46 CB         26.8533   31.2982    2.2507 C.3       7 UNK        -0.1927 
     47 C          28.8948   32.2316    3.3998 C.2       7 UNK         0.5013 
     48 O          28.8264   32.0263    4.6117 O.2       7 UNK        -0.5193 
     49 N          29.4128   33.3441    2.8633 N.am      8 UNK        -0.4253 
     50 CA         30.0476   34.4194    3.6292 C.3       8 UNK         0.0242 
     51 CB         30.2183   35.6487    2.7217 C.3       8 UNK        -0.2000 
     52 C          31.4007   34.0233    4.2536 C.2       8 UNK         0.4948 
     53 O          31.7805   34.6149    5.2653 O.2       8 UNK        -0.5275 
     54 N          32.1044   33.0591    3.6438 N.am      9 UNK        -0.4246 
     55 CA         33.4253   32.5833    4.0663 C.3       9 UNK         0.0261 
     56 CB         34.4234   32.8206    2.9205 C.3       9 UNK        -0.1959 
     57 C          33.4288   31.0975    4.4636 C.2       9 UNK         0.5033 
     58 O          34.3046   30.7015    5.2351 O.2       9 UNK        -0.5390 
     59 N          32.4862   30.3111    3.9185 N.am      10 UNK        -0.4215 
     60 CA         32.3361   28.8557    4.0288 C.3       10 UNK         0.0240 
     61 CB         30.9422   28.4567    3.5093 C.3       10 UNK        -0.1982 
     62 C          32.5647   28.2871    5.4394 C.2       10 UNK         0.4970 
     63 O          31.6734   28.3758    6.2860 O.2       10 UNK        -0.4916 
     64 N          33.7543   27.7064    5.6426 N.am      11 UNK        -0.4279 
     65 CA         34.2117   27.0729    6.8909 C.3       11 UNK         0.1003 
     66 C          34.3275   28.0446    8.1067 C.2       11 UNK         0.5709 
     67 N          34.4272   29.3528    7.8965 N.am      11 UNK        -0.7358 
     68 O          34.3650   27.6105    9.2560 O.2       11 UNK        -0.4999 
     69 C69        33.4428   25.7562    7.2120 C.3       12 UNK        -0.0954 
     70 S70        33.6225   24.5188    5.8798 S.3       12 UNK        -0.2268 
     71 C71        31.9887   24.5866    5.0840 C.3       12 UNK         0.0203 
     72 H72        28.2353   24.4622   -3.9304 H         1 UNK         0.0888 
     73 H73        27.9648   22.7585   -4.3120 H         1 UNK         0.0888 
     74 H74        26.8395   23.6180   -3.2596 H         1 UNK         0.0888 
     75 H75        27.1625   23.2723   -1.0378 H         1 UNK         0.3017 
     76 H76        29.7982   23.1564    0.0770 H         1 UNK         0.0873 
     77 H77        29.4390   20.7467   -0.5384 H         1 UNK         0.0745 
     78 H78        27.9399   20.7346    0.3425 H         1 UNK         0.0745 
     79 H79        31.7509   20.9386    0.3836 H         1 UNK         0.0705 
     80 H80        32.2096   20.4139    1.9848 H         1 UNK         0.0705 
     81 H81        31.5306   22.1413    3.9540 H         1 UNK         0.1334 
     82 H82        32.6617   26.1502    2.9699 H         1 UNK         0.1417 
     83 H83        32.3259   23.2121   -0.1285 H         1 UNK         0.1562 
     84 H84        33.8783   25.5707   -0.1609 H         1 UNK         0.0748 
     85 H85        33.0853   26.8230    0.7599 H         1 UNK         0.0748 
     86 H86        30.4136   27.0377    0.7643 H         1 UNK         0.0940 
     87 H87        29.8091   25.5121    0.2305 H         1 UNK         0.0940 
     88 H88        29.2563   26.8528   -2.0535 H         1 UNK         0.0703 
     89 H89        27.5959   26.7201    0.3848 H         1 UNK         0.3081 
     90 H90        24.6644   27.0658   -1.1474 H         1 UNK         0.0719 
     91 H91        24.6886   24.9378   -2.4146 H         1 UNK         0.0809 
     92 H92        25.3723   24.0889   -1.0362 H         1 UNK         0.0809 
     93 H93        23.7552   24.7740   -0.9393 H         1 UNK         0.0809 
     94 H94        25.6692   25.3809    1.0825 H         1 UNK         0.2990 
     95 H95        25.8646   28.0904    3.2921 H         1 UNK         0.0690 
     96 H96        24.1682   27.0221    4.7556 H         1 UNK         0.0788 
     97 H97        23.5168   26.1179    3.3871 H         1 UNK         0.0788 
     98 H98        23.3773   27.8697    3.4383 H         1 UNK         0.0788 
     99 H99        25.8227   25.3070    3.8559 H         1 UNK         0.2993 
    100 H100       29.1553   24.9758    3.9816 H         1 UNK         0.0949 
    101 H101       26.5581   23.3344    3.8883 H         1 UNK         0.0767 
    102 H102       28.0478   22.8786    4.6997 H         1 UNK         0.0767 
    103 H103       27.1403   24.2624    5.2731 H         1 UNK         0.0767 
    104 H104       29.7483   23.6807    2.2811 H         1 UNK         0.3013 
    105 H105       31.1992   28.6185   -0.8221 H         1 UNK         0.3121 
    106 H106       30.0642   31.2632   -1.3111 H         1 UNK         0.0774 
    107 H107       32.3954   32.0013   -0.7895 H         1 UNK         0.0815 
    108 H108       32.8279   30.3634   -0.3220 H         1 UNK         0.0815 
    109 H109       32.3891   30.7219   -1.9921 H         1 UNK         0.0815 
    110 H110       28.3800   30.8326    0.3411 H         1 UNK         0.2987 
    111 H111       28.5569   30.1900    2.9032 H         1 UNK         0.0949 
    112 H112       26.4452   30.4757    1.6637 H         1 UNK         0.0806 
    113 H113       26.3406   31.2910    3.2138 H         1 UNK         0.0806 
    114 H114       26.5933   32.2303    1.7476 H         1 UNK         0.0806 
    115 H115       29.4278   33.4222    1.8567 H         1 UNK         0.3010 
    116 H116       29.3779   34.6903    4.4485 H         1 UNK         0.0829 
    117 H117       30.8679   35.4366    1.8715 H         1 UNK         0.0813 
    118 H118       30.6624   36.4803    3.2710 H         1 UNK         0.0813 
    119 H119       29.2591   35.9942    2.3354 H         1 UNK         0.0813 
    120 H120       31.7035   32.6083    2.8246 H         1 UNK         0.3038 
    121 H121       33.7713   33.1435    4.9374 H         1 UNK         0.0769 
    122 H122       34.4971   33.8798    2.6739 H         1 UNK         0.0811 
    123 H123       34.1326   32.2852    2.0154 H         1 UNK         0.0811 
    124 H124       35.4235   32.4818    3.1950 H         1 UNK         0.0811 
    125 H125       31.8751   30.7430    3.2300 H         1 UNK         0.3204 
    126 H126       33.0783   28.4196    3.3584 H         1 UNK         0.0748 
    127 H127       30.1536   28.9680    4.0616 H         1 UNK         0.0771 
    128 H128       30.8241   28.6932    2.4536 H         1 UNK         0.0771 
    129 H129       30.7597   27.3876    3.6179 H         1 UNK         0.0771 
    130 H130       34.4392   27.7341    4.9018 H         1 UNK         0.2980 
    131 H131       35.2462   26.7885    6.6959 H         1 UNK         0.0545 
    132 H132       34.5149   29.9736    8.6847 H         1 UNK         0.3459 
    133 H133       34.4031   29.7307    6.9537 H         1 UNK         0.3459 
    134 H134       32.3878   25.9544    7.4066 H         1 UNK         0.0616 
    135 H135       33.8351   25.2976    8.1211 H         1 UNK         0.0616 
    136 H136       31.5708   25.5896    5.1634 H         1 UNK         0.0634 
    137 H137       31.3028   23.9282    5.6190 H         1 UNK         0.0634 
@<TRIPOS>BOND
     1    1    2 1    
     2    1   72 1    
     3    1   73 1    
     4    1   74 1    
     5    2    3 2    
     6    2    4 am   BACKBONE|DICT|INTERRES
     7    4    5 1    
     8    4   75 1    
     9    5    6 1    
    10    5   35 1    
    11    5   76 1    
    12    6    7 1    
    13    6   77 1    
    14    6   78 1    
    15    7    8 1    
    16    8    9 1    
    17    8   79 1    
    18    8   80 1    
    19    9   10 ar   
    20    9   14 ar   
    21   10   11 ar   
    22   10   81 1    
    23   11   12 ar   
    24   11   71 1    
    25   12   13 ar   
    26   12   82 1    
    27   13   14 ar   
    28   13   15 1    
    29   14   83 1    
    30   15   16 1    
    31   15   84 1    
    32   15   85 1    
    33   16   17 1    
    34   17   18 1    
    35   17   86 1    
    36   17   87 1    
    37   18   19 1    
    38   18   37 1    
    39   18   88 1    
    40   19   20 am   BACKBONE|DICT|INTERRES
    41   19   89 1    
    42   20   21 2    
    43   20   22 1    
    44   22   23 1    
    45   22   24 1    
    46   22   90 1    
    47   23   91 1    
    48   23   92 1    
    49   23   93 1    
    50   24   25 am   BACKBONE|DICT|INTERRES
    51   24   94 1    
    52   25   26 2    
    53   25   27 1    
    54   27   28 1    
    55   27   29 1    
    56   27   95 1    
    57   28   96 1    
    58   28   97 1    
    59   28   98 1    
    60   29   30 am   BACKBONE|DICT|INTERRES
    61   29   99 1    
    62   30   31 2    
    63   30   32 1    
    64   32   33 1    
    65   32   34 1    
    66   32  100 1    
    67   33  101 1    
    68   33  102 1    
    69   33  103 1    
    70   34   35 am   BACKBONE|DICT|INTERRES
    71   34  104 1    
    72   35   36 2    
    73   37   38 2    
    74   37   39 am   BACKBONE|DICT|INTERRES
    75   39   40 1    
    76   39  105 1    
    77   40   41 1    
    78   40   42 1    
    79   40  106 1    
    80   41  107 1    
    81   41  108 1    
    82   41  109 1    
    83   42   43 2    
    84   42   44 am   BACKBONE|DICT|INTERRES
    85   44   45 1    
    86   44  110 1    
    87   45   46 1    
    88   45   47 1    
    89   45  111 1    
    90   46  112 1    
    91   46  113 1    
    92   46  114 1    
    93   47   48 2    
    94   47   49 am   BACKBONE|DICT|INTERRES
    95   49   50 1    
    96   49  115 1    
    97   50   51 1    
    98   50   52 1    
    99   50  116 1    
   100   51  117 1    
   101   51  118 1    
   102   51  119 1    
   103   52   53 2    
   104   52   54 am   BACKBONE|DICT|INTERRES
   105   54   55 1    
   106   54  120 1    
   107   55   56 1    
   108   55   57 1    
   109   55  121 1    
   110   56  122 1    
   111   56  123 1    
   112   56  124 1    
   113   57   58 2    
   114   57   59 am   BACKBONE|DICT|INTERRES
   115   59   60 1    
   116   59  125 1    
   117   60   61 1    
   118   60   62 1    
   119   60  126 1    
   120   61  127 1    
   121   61  128 1    
   122   61  129 1    
   123   62   63 2    
   124   62   64 am   BACKBONE|DICT|INTERRES
   125   64   65 1    
   126   64  130 1    
   127   65   66 1    
   128   65   69 1    
   129   65  131 1    
   130   66   67 am   BACKBONE|DICT|INTERRES
   131   66   68 2    
   132   67  132 1    
   133   67  133 1    
   134   69   70 1    
   135   69  134 1    
   136   69  135 1    
   137   70   71 1    
   138   71  136 1    
   139   71  137 1    
@<TRIPOS>SUBSTRUCTURE
     1 UNK         1 GROUP             0       ****    0 ROOT    
