@<TRIPOS>MOLECULE
3R136
137   139    1
SMALL
USER_CHARGES


@<TRIPOS>ATOM
      1 CA         28.5529   24.4150    5.3397 C.3       0 UNK        -0.1979 
      2 C          28.0824   23.3260    4.3886 C.2       0 UNK         0.4864 
      3 O          27.0522   22.6983    4.6411 O.2       0 UNK        -0.5359 
      4 N          28.8189   23.0967    3.2922 N.am      1 UNK        -0.4318 
      5 CA         28.5376   22.0808    2.2682 C.3       1 UNK         0.0824 
      6 C6         29.8128   21.6844    1.4789 C.3       12 UNK        -0.0944 
      7 S7         31.1335   21.0733    2.5822 S.3       12 UNK        -0.2672 
      8 C8         32.6322   21.8068    1.8447 C.3       12 UNK         0.0333 
      9 C9         32.6070   23.3313    1.7841 C.ar      12 UNK        -0.0807 
     10 C10        32.9051   23.9806    0.5823 C.ar      12 UNK        -0.0894 
     11 C11        32.9197   25.3757    0.5109 C.ar      12 UNK        -0.0804 
     12 C12        32.6237   26.1235    1.6550 C.ar      12 UNK        -0.0824 
     13 C13        32.3035   25.4912    2.8599 C.ar      12 UNK        -0.0762 
     14 C14        32.3136   24.0933    2.9205 C.ar      12 UNK        -0.0782 
     15 C15        31.9745   26.3033    4.1096 C.3       12 UNK         0.0230 
     16 S16        30.6951   27.5979    3.8900 S.3       12 UNK        -0.2608 
     17 C17        29.4557   26.8693    2.7574 C.3       12 UNK        -0.0989 
     18 CA         29.4465   27.5896    1.3823 C.3       5 UNK         0.0716 
     19 N          28.9321   26.7247    0.3224 N.am      5 UNK        -0.4135 
     20 C          29.2650   26.8489   -0.9692 C.2       4 UNK         0.5031 
     21 O          30.0532   27.6913   -1.3982 O.2       4 UNK        -0.5229 
     22 CA         28.6155   25.8647   -1.9551 C.3       4 UNK         0.0329 
     23 CB         29.4301   24.5622   -2.0204 C.3       4 UNK        -0.2001 
     24 N          27.2173   25.5705   -1.6274 N.am      4 UNK        -0.4303 
     25 C          26.2214   26.4638   -1.7469 C.2       3 UNK         0.5044 
     26 O          26.3840   27.6016   -2.1899 O.2       3 UNK        -0.5152 
     27 CA         24.7989   26.0366   -1.3331 C.3       3 UNK         0.0319 
     28 CB         23.8931   25.9113   -2.5702 C.3       3 UNK        -0.2001 
     29 N          24.7230   24.7890   -0.5694 N.am      3 UNK        -0.4354 
     30 C          25.1836   24.6074    0.6747 C.2       2 UNK         0.4964 
     31 O          25.7716   25.4780    1.3195 O.2       2 UNK        -0.5047 
     32 CA         24.9681   23.2173    1.3074 C.3       2 UNK         0.0288 
     33 CB         24.3798   22.1576    0.3458 C.3       2 UNK        -0.2113 
     34 N          26.1973   22.7171    1.9276 N.am      2 UNK        -0.4145 
     35 C          27.3876   22.5314    1.3401 C.2       1 UNK         0.5006 
     36 O          27.5954   22.7288    0.1405 O.2       1 UNK        -0.5103 
     37 C          28.6456   28.9032    1.4276 C.2       5 UNK         0.5055 
     38 O          27.4283   28.8893    1.2329 O.2       5 UNK        -0.5220 
     39 N          29.3343   30.0052    1.7492 N.am      6 UNK        -0.4450 
     40 CA         28.7392   31.3235    1.9879 C.3       6 UNK         0.0367 
     41 CB         29.8093   32.3991    1.7306 C.3       6 UNK        -0.1929 
     42 C          28.1466   31.4704    3.4051 C.2       6 UNK         0.5070 
     43 O          27.6437   32.5448    3.7315 O.2       6 UNK        -0.5237 
     44 N          28.2570   30.4165    4.2315 N.am      7 UNK        -0.4739 
     45 CA         27.8612   30.3079    5.6461 C.3       7 UNK         0.0276 
     46 CB         26.3674   30.6349    5.8531 C.3       7 UNK        -0.1927 
     47 C          28.7709   31.0894    6.6158 C.2       7 UNK         0.5013 
     48 O          28.5160   31.0861    7.8203 O.2       7 UNK        -0.5193 
     49 N          29.8415   31.6943    6.0872 N.am      8 UNK        -0.4253 
     50 CA         30.8943   32.3959    6.8248 C.3       8 UNK         0.0242 
     51 CB         31.2158   33.7048    6.0790 C.3       8 UNK        -0.2000 
     52 C          32.1549   31.5233    6.9919 C.2       8 UNK         0.4948 
     53 O          33.2225   32.0650    7.2814 O.2       8 UNK        -0.5275 
     54 N          32.0200   30.2031    6.7775 N.am      9 UNK        -0.4246 
     55 CA         33.0855   29.1920    6.7270 C.3       9 UNK         0.0261 
     56 CB         33.7619   29.0205    8.1044 C.3       9 UNK        -0.1959 
     57 C          34.0878   29.4585    5.5847 C.2       9 UNK         0.5033 
     58 O          35.2972   29.3064    5.7691 O.2       9 UNK        -0.5390 
     59 N          33.5572   29.8571    4.4232 N.am      10 UNK        -0.4215 
     60 CA         34.2914   30.1878    3.2089 C.3       10 UNK         0.0240 
     61 CB         34.7896   31.6429    3.2793 C.3       10 UNK        -0.1982 
     62 C          33.3558   29.9871    2.0142 C.2       10 UNK         0.4970 
     63 O          32.1339   30.0397    2.1779 O.2       10 UNK        -0.4916 
     64 N          33.9441   29.7689    0.8357 N.am      11 UNK        -0.4279 
     65 CA         33.2253   29.5302   -0.4272 C.3       11 UNK         0.1003 
     66 C          32.6642   30.8148   -1.1078 C.2       11 UNK         0.5709 
     67 N          32.8965   32.0091   -0.5756 N.am      11 UNK        -0.7358 
     68 O          32.0028   30.7287   -2.1390 O.2       11 UNK        -0.4999 
     69 C69        34.0746   28.6852   -1.4166 C.3       12 UNK        -0.0954 
     70 S70        34.7041   27.1336   -0.6868 S.3       12 UNK        -0.2268 
     71 C71        33.2315   26.0707   -0.8072 C.3       12 UNK         0.0203 
     72 H72        29.5275   24.8060    5.0574 H         1 UNK         0.0888 
     73 H73        27.8426   25.2413    5.3460 H         1 UNK         0.0888 
     74 H74        28.6286   24.0218    6.3530 H         1 UNK         0.0888 
     75 H75        29.6601   23.6309    3.1358 H         1 UNK         0.3017 
     76 H76        28.1855   21.1799    2.7761 H         1 UNK         0.0873 
     77 H77        30.1773   22.5308    0.8949 H         1 UNK         0.0745 
     78 H78        29.5870   20.8948    0.7598 H         1 UNK         0.0745 
     79 H79        32.7666   21.3815    0.8488 H         1 UNK         0.0705 
     80 H80        33.4980   21.4953    2.4302 H         1 UNK         0.0705 
     81 H81        33.1335   23.3980   -0.2999 H         1 UNK         0.1334 
     82 H82        32.6388   27.2018    1.6063 H         1 UNK         0.1417 
     83 H83        32.0966   23.5908    3.8536 H         1 UNK         0.1562 
     84 H84        32.8921   26.7826    4.4511 H         1 UNK         0.0748 
     85 H85        31.6647   25.6476    4.9233 H         1 UNK         0.0748 
     86 H86        28.4713   26.8963    3.2297 H         1 UNK         0.0940 
     87 H87        29.6799   25.8121    2.6229 H         1 UNK         0.0940 
     88 H88        30.4754   27.8419    1.1215 H         1 UNK         0.0703 
     89 H89        28.1967   26.0800    0.5764 H         1 UNK         0.3081 
     90 H90        28.6373   26.3236   -2.9460 H         1 UNK         0.0719 
     91 H91        30.4464   24.7589   -2.3643 H         1 UNK         0.0809 
     92 H92        29.5099   24.0838   -1.0442 H         1 UNK         0.0809 
     93 H93        28.9860   23.8459   -2.7116 H         1 UNK         0.0809 
     94 H94        27.0139   24.6527   -1.2523 H         1 UNK         0.2990 
     95 H95        24.4024   26.8343   -0.7013 H         1 UNK         0.0690 
     96 H96        22.8612   25.7006   -2.2884 H         1 UNK         0.0788 
     97 H97        24.2298   25.1170   -3.2376 H         1 UNK         0.0788 
     98 H98        23.8846   26.8381   -3.1458 H         1 UNK         0.0788 
     99 H99        24.2758   24.0075   -1.0269 H         1 UNK         0.2993 
    100 H100       24.2531   23.3651    2.1182 H         1 UNK         0.0949 
    101 H101       24.2485   21.2025    0.8548 H         1 UNK         0.0767 
    102 H102       23.3964   22.4539   -0.0216 H         1 UNK         0.0767 
    103 H103       25.0232   21.9811   -0.5172 H         1 UNK         0.0767 
    104 H104       26.1751   22.6097    2.9393 H         1 UNK         0.3013 
    105 H105       30.3400   29.9347    1.9064 H         1 UNK         0.3121 
    106 H106       27.9238   31.4778    1.2779 H         1 UNK         0.0774 
    107 H107       29.3903   33.4016    1.8261 H         1 UNK         0.0815 
    108 H108       30.6381   32.3240    2.4354 H         1 UNK         0.0815 
    109 H109       30.2188   32.3164    0.7238 H         1 UNK         0.0815 
    110 H110       28.7050   29.5942    3.8508 H         1 UNK         0.2987 
    111 H111       27.9974   29.2566    5.9054 H         1 UNK         0.0949 
    112 H112       25.7379   30.0701    5.1656 H         1 UNK         0.0806 
    113 H113       26.0499   30.3799    6.8649 H         1 UNK         0.0806 
    114 H114       26.1568   31.6949    5.7099 H         1 UNK         0.0806 
    115 H115       29.9505   31.6462    5.0849 H         1 UNK         0.3010 
    116 H116       30.5432   32.6503    7.8270 H         1 UNK         0.0829 
    117 H117       30.3227   34.3168    5.9500 H         1 UNK         0.0813 
    118 H118       31.9387   34.3062    6.6319 H         1 UNK         0.0813 
    119 H119       31.6372   33.5140    5.0911 H         1 UNK         0.0813 
    120 H120       31.0919   29.8658    6.5666 H         1 UNK         0.3038 
    121 H121       32.5968   28.2469    6.4873 H         1 UNK         0.0769 
    122 H122       34.4554   28.1788    8.0954 H         1 UNK         0.0811 
    123 H123       33.0276   28.8259    8.8859 H         1 UNK         0.0811 
    124 H124       34.3316   29.9048    8.3913 H         1 UNK         0.0811 
    125 H125       32.5514   29.8923    4.3149 H         1 UNK         0.3204 
    126 H126       35.1400   29.5081    3.1047 H         1 UNK         0.0748 
    127 H127       35.3452   31.9150    2.3811 H         1 UNK         0.0771 
    128 H128       33.9619   32.3464    3.3812 H         1 UNK         0.0771 
    129 H129       35.4575   31.7919    4.1281 H         1 UNK         0.0771 
    130 H130       34.9516   29.7508    0.7780 H         1 UNK         0.2980 
    131 H131       32.3406   28.9382   -0.1872 H         1 UNK         0.0545 
    132 H132       32.5288   32.8296   -1.0299 H         1 UNK         0.3459 
    133 H133       33.4373   32.0978    0.2683 H         1 UNK         0.3459 
    134 H134       33.4982   28.4378   -2.3102 H         1 UNK         0.0616 
    135 H135       34.9339   29.2628   -1.7616 H         1 UNK         0.0616 
    136 H136       32.3652   26.6583   -1.1024 H         1 UNK         0.0634 
    137 H137       33.3919   25.3452   -1.6060 H         1 UNK         0.0634 
@<TRIPOS>BOND
     1    1    2 1    
     2    1   72 1    
     3    1   73 1    
     4    1   74 1    
     5    2    3 2    
     6    2    4 am   BACKBONE|DICT|INTERRES
     7    4    5 1    
     8    4   75 1    
     9    5    6 1    
    10    5   35 1    
    11    5   76 1    
    12    6    7 1    
    13    6   77 1    
    14    6   78 1    
    15    7    8 1    
    16    8    9 1    
    17    8   79 1    
    18    8   80 1    
    19    9   10 ar   
    20    9   14 ar   
    21   10   11 ar   
    22   10   81 1    
    23   11   12 ar   
    24   11   71 1    
    25   12   13 ar   
    26   12   82 1    
    27   13   14 ar   
    28   13   15 1    
    29   14   83 1    
    30   15   16 1    
    31   15   84 1    
    32   15   85 1    
    33   16   17 1    
    34   17   18 1    
    35   17   86 1    
    36   17   87 1    
    37   18   19 1    
    38   18   37 1    
    39   18   88 1    
    40   19   20 am   BACKBONE|DICT|INTERRES
    41   19   89 1    
    42   20   21 2    
    43   20   22 1    
    44   22   23 1    
    45   22   24 1    
    46   22   90 1    
    47   23   91 1    
    48   23   92 1    
    49   23   93 1    
    50   24   25 am   BACKBONE|DICT|INTERRES
    51   24   94 1    
    52   25   26 2    
    53   25   27 1    
    54   27   28 1    
    55   27   29 1    
    56   27   95 1    
    57   28   96 1    
    58   28   97 1    
    59   28   98 1    
    60   29   30 am   BACKBONE|DICT|INTERRES
    61   29   99 1    
    62   30   31 2    
    63   30   32 1    
    64   32   33 1    
    65   32   34 1    
    66   32  100 1    
    67   33  101 1    
    68   33  102 1    
    69   33  103 1    
    70   34   35 am   BACKBONE|DICT|INTERRES
    71   34  104 1    
    72   35   36 2    
    73   37   38 2    
    74   37   39 am   BACKBONE|DICT|INTERRES
    75   39   40 1    
    76   39  105 1    
    77   40   41 1    
    78   40   42 1    
    79   40  106 1    
    80   41  107 1    
    81   41  108 1    
    82   41  109 1    
    83   42   43 2    
    84   42   44 am   BACKBONE|DICT|INTERRES
    85   44   45 1    
    86   44  110 1    
    87   45   46 1    
    88   45   47 1    
    89   45  111 1    
    90   46  112 1    
    91   46  113 1    
    92   46  114 1    
    93   47   48 2    
    94   47   49 am   BACKBONE|DICT|INTERRES
    95   49   50 1    
    96   49  115 1    
    97   50   51 1    
    98   50   52 1    
    99   50  116 1    
   100   51  117 1    
   101   51  118 1    
   102   51  119 1    
   103   52   53 2    
   104   52   54 am   BACKBONE|DICT|INTERRES
   105   54   55 1    
   106   54  120 1    
   107   55   56 1    
   108   55   57 1    
   109   55  121 1    
   110   56  122 1    
   111   56  123 1    
   112   56  124 1    
   113   57   58 2    
   114   57   59 am   BACKBONE|DICT|INTERRES
   115   59   60 1    
   116   59  125 1    
   117   60   61 1    
   118   60   62 1    
   119   60  126 1    
   120   61  127 1    
   121   61  128 1    
   122   61  129 1    
   123   62   63 2    
   124   62   64 am   BACKBONE|DICT|INTERRES
   125   64   65 1    
   126   64  130 1    
   127   65   66 1    
   128   65   69 1    
   129   65  131 1    
   130   66   67 am   BACKBONE|DICT|INTERRES
   131   66   68 2    
   132   67  132 1    
   133   67  133 1    
   134   69   70 1    
   135   69  134 1    
   136   69  135 1    
   137   70   71 1    
   138   71  136 1    
   139   71  137 1    
@<TRIPOS>SUBSTRUCTURE
     1 UNK         1 GROUP             0       ****    0 ROOT    
