@<TRIPOS>MOLECULE
3R136
137   139    1
SMALL
USER_CHARGES


@<TRIPOS>ATOM
      1 CA         26.6568   23.6989    1.1522 C.3       0 UNK        -0.1979 
      2 C          27.6437   22.7720    0.4612 C.2       0 UNK         0.4864 
      3 O          27.4385   22.4225   -0.7020 O.2       0 UNK        -0.5359 
      4 N          28.6883   22.3379    1.1805 N.am      1 UNK        -0.4318 
      5 CA         29.6255   21.2981    0.7354 C.3       1 UNK         0.0824 
      6 C6         30.4548   20.6927    1.8970 C.3       12 UNK        -0.0944 
      7 S7         29.4117   20.1880    3.3139 S.3       12 UNK        -0.2672 
      8 C8         30.3150   20.8452    4.7566 C.3       12 UNK         0.0333 
      9 C9         30.5361   22.3508    4.6847 C.ar      12 UNK        -0.0807 
     10 C10        31.8117   22.8518    4.4087 C.ar      12 UNK        -0.0894 
     11 C11        32.0282   24.2274    4.3100 C.ar      12 UNK        -0.0804 
     12 C12        30.9643   25.1091    4.5123 C.ar      12 UNK        -0.0824 
     13 C13        29.6870   24.6224    4.8043 C.ar      12 UNK        -0.0762 
     14 C14        29.4765   23.2412    4.8905 C.ar      12 UNK        -0.0782 
     15 C15        28.5374   25.5962    5.0020 C.3       12 UNK         0.0230 
     16 S16        27.8551   26.0986    3.3972 S.3       12 UNK        -0.2608 
     17 C17        26.6293   27.3553    3.8907 C.3       12 UNK        -0.0989 
     18 CA         27.1091   28.7800    3.5186 C.3       5 UNK         0.0716 
     19 N          27.3921   28.9708    2.0907 N.am      5 UNK        -0.4135 
     20 C          26.5808   28.8247    1.0354 C.2       4 UNK         0.5031 
     21 O          25.3842   28.5446    1.1187 O.2       4 UNK        -0.5229 
     22 CA         27.2077   29.0762   -0.3466 C.3       4 UNK         0.0329 
     23 CB         27.1004   30.5626   -0.7221 C.3       4 UNK        -0.2001 
     24 N          28.6123   28.6602   -0.4095 N.am      4 UNK        -0.4303 
     25 C          29.0102   27.3826   -0.4592 C.2       3 UNK         0.5044 
     26 O          28.2370   26.4239   -0.5335 O.2       3 UNK        -0.5152 
     27 CA         30.5229   27.1338   -0.4165 C.3       3 UNK         0.0319 
     28 CB         31.1189   27.5304    0.9474 C.3       3 UNK        -0.2001 
     29 N          30.7648   25.7166   -0.6712 N.am      3 UNK        -0.4354 
     30 C          31.9015   25.1806   -1.1302 C.2       2 UNK         0.4964 
     31 O          32.8981   25.8470   -1.4155 O.2       2 UNK        -0.5047 
     32 CA         31.9319   23.6485   -1.2860 C.3       2 UNK         0.0288 
     33 CB         33.3618   23.0659   -1.2409 C.3       2 UNK        -0.2113 
     34 N          31.0793   22.9979   -0.2853 N.am      2 UNK        -0.4145 
     35 C          30.5398   21.7775   -0.4106 C.2       1 UNK         0.5006 
     36 O          30.7245   21.0429   -1.3832 O.2       1 UNK        -0.5103 
     37 C          26.1958   29.8744    4.1023 C.2       5 UNK         0.5055 
     38 O          26.5166   30.4188    5.1593 O.2       5 UNK        -0.5220 
     39 N          25.1004   30.2001    3.4045 N.am      6 UNK        -0.4450 
     40 CA         24.1867   31.2912    3.7442 C.3       6 UNK         0.0367 
     41 CB         22.8832   31.1422    2.9421 C.3       6 UNK        -0.1929 
     42 C          24.8237   32.6709    3.5086 C.2       6 UNK         0.5070 
     43 O          24.7385   33.5343    4.3825 O.2       6 UNK        -0.5237 
     44 N          25.4517   32.8502    2.3367 N.am      7 UNK        -0.4739 
     45 CA         26.1410   34.0884    1.9606 C.3       7 UNK         0.0276 
     46 CB         26.1636   34.2301    0.4296 C.3       7 UNK        -0.1927 
     47 C          27.5636   34.1550    2.5378 C.2       7 UNK         0.5013 
     48 O          27.9580   35.2002    3.0551 O.2       7 UNK        -0.5193 
     49 N          28.2994   33.0410    2.4461 N.am      8 UNK        -0.4253 
     50 CA         29.6597   32.8690    2.9457 C.3       8 UNK         0.0242 
     51 CB         30.6705   33.5915    2.0365 C.3       8 UNK        -0.2000 
     52 C          29.9601   31.3697    2.9927 C.2       8 UNK         0.4948 
     53 O          29.5725   30.6526    2.0663 O.2       8 UNK        -0.5275 
     54 N          30.6380   30.9316    4.0579 N.am      9 UNK        -0.4246 
     55 CA         31.0807   29.5542    4.2723 C.3       9 UNK         0.0261 
     56 CB         30.6926   29.1240    5.7039 C.3       9 UNK        -0.1959 
     57 C          32.5886   29.4697    3.9701 C.2       9 UNK         0.5033 
     58 O          33.0007   29.8522    2.8739 O.2       9 UNK        -0.5390 
     59 N          33.3846   28.9769    4.9305 N.am      10 UNK        -0.4215 
     60 CA         34.8538   28.8702    4.9575 C.3       10 UNK         0.0240 
     61 CB         35.5178   30.2573    4.8497 C.3       10 UNK        -0.1982 
     62 C          35.4796   27.8861    3.9502 C.2       10 UNK         0.4970 
     63 O          36.4478   27.2158    4.3125 O.2       10 UNK        -0.4916 
     64 N          34.9240   27.8001    2.7354 N.am      11 UNK        -0.4279 
     65 CA         35.3930   26.9672    1.6149 C.3       11 UNK         0.1003 
     66 C          36.8060   27.3878    1.0984 C.2       11 UNK         0.5709 
     67 N          37.5072   26.5291    0.3622 N.am      11 UNK        -0.7358 
     68 O          37.2592   28.5155    1.3089 O.2       11 UNK        -0.4999 
     69 C69        35.2462   25.4409    1.9018 C.3       12 UNK        -0.0954 
     70 S70        33.5119   24.9397    2.1383 S.3       12 UNK        -0.2268 
     71 C71        33.4014   24.7557    3.9387 C.3       12 UNK         0.0203 
     72 H72        26.8343   24.7330    0.8596 H         1 UNK         0.0888 
     73 H73        26.7340   23.6263    2.2371 H         1 UNK         0.0888 
     74 H74        25.6351   23.4390    0.8743 H         1 UNK         0.0888 
     75 H75        28.8023   22.6471    2.1358 H         1 UNK         0.3017 
     76 H76        29.0177   20.4872    0.3267 H         1 UNK         0.0873 
     77 H77        30.9954   19.8100    1.5502 H         1 UNK         0.0745 
     78 H78        31.2193   21.3961    2.2244 H         1 UNK         0.0745 
     79 H79        29.7532   20.6075    5.6610 H         1 UNK         0.0705 
     80 H80        31.2669   20.3191    4.8447 H         1 UNK         0.0705 
     81 H81        32.6344   22.1698    4.2414 H         1 UNK         0.1334 
     82 H82        31.1252   26.1734    4.4158 H         1 UNK         0.1417 
     83 H83        28.4879   22.8574    5.1044 H         1 UNK         0.1562 
     84 H84        28.8835   26.4771    5.5445 H         1 UNK         0.0748 
     85 H85        27.7508   25.1441    5.6079 H         1 UNK         0.0748 
     86 H86        26.4444   27.2775    4.9640 H         1 UNK         0.0940 
     87 H87        25.6806   27.1233    3.4039 H         1 UNK         0.0940 
     88 H88        28.0740   28.9226    4.0059 H         1 UNK         0.0703 
     89 H89        28.3266   29.3304    1.9061 H         1 UNK         0.3081 
     90 H90        26.6390   28.4969   -1.0775 H         1 UNK         0.0719 
     91 H91        27.6966   31.1898   -0.0588 H         1 UNK         0.0809 
     92 H92        27.4437   30.7369   -1.7420 H         1 UNK         0.0809 
     93 H93        26.0669   30.9079   -0.6676 H         1 UNK         0.0809 
     94 H94        29.3087   29.3885   -0.3270 H         1 UNK         0.2990 
     95 H95        30.9860   27.7268   -1.2081 H         1 UNK         0.0690 
     96 H96        32.1935   27.3548    0.9770 H         1 UNK         0.0788 
     97 H97        30.6644   26.9688    1.7650 H         1 UNK         0.0788 
     98 H98        30.9720   28.5909    1.1496 H         1 UNK         0.0788 
     99 H99        29.9387   25.1411   -0.5581 H         1 UNK         0.2993 
    100 H100       31.5154   23.4454   -2.2750 H         1 UNK         0.0949 
    101 H101       34.0017   23.5287   -1.9932 H         1 UNK         0.0767 
    102 H102       33.8298   23.2254   -0.2699 H         1 UNK         0.0767 
    103 H103       33.3641   21.9942   -1.4392 H         1 UNK         0.0767 
    104 H104       30.8954   23.5296    0.5549 H         1 UNK         0.3013 
    105 H105       24.9207   29.6778    2.5495 H         1 UNK         0.3121 
    106 H106       23.9420   31.2133    4.8061 H         1 UNK         0.0774 
    107 H107       23.0598   31.1739    1.8661 H         1 UNK         0.0815 
    108 H108       22.1842   31.9446    3.1825 H         1 UNK         0.0815 
    109 H109       22.3838   30.2004    3.1708 H         1 UNK         0.0815 
    110 H110       25.4539   32.0942    1.6687 H         1 UNK         0.2987 
    111 H111       25.5831   34.9381    2.3616 H         1 UNK         0.0949 
    112 H112       26.7232   33.4284   -0.0506 H         1 UNK         0.0806 
    113 H113       25.1548   34.2298    0.0166 H         1 UNK         0.0806 
    114 H114       26.6316   35.1709    0.1355 H         1 UNK         0.0806 
    115 H115       27.9040   32.2128    2.0251 H         1 UNK         0.3010 
    116 H116       29.7166   33.2794    3.9557 H         1 UNK         0.0829 
    117 H117       30.5015   34.6679    2.0231 H         1 UNK         0.0813 
    118 H118       31.6922   33.4295    2.3820 H         1 UNK         0.0813 
    119 H119       30.6133   33.2309    1.0092 H         1 UNK         0.0813 
    120 H120       30.9541   31.6078    4.7385 H         1 UNK         0.3038 
    121 H121       30.5790   28.8803    3.5756 H         1 UNK         0.0769 
    122 H122       31.1726   29.7424    6.4637 H         1 UNK         0.0811 
    123 H123       30.9562   28.0843    5.8993 H         1 UNK         0.0811 
    124 H124       29.6164   29.2069    5.8565 H         1 UNK         0.0811 
    125 H125       32.9297   28.6661    5.7779 H         1 UNK         0.3204 
    126 H126       35.0918   28.4781    5.9477 H         1 UNK         0.0748 
    127 H127       36.5988   30.1820    4.9767 H         1 UNK         0.0771 
    128 H128       35.3396   30.7207    3.8787 H         1 UNK         0.0771 
    129 H129       35.1477   30.9355    5.6187 H         1 UNK         0.0771 
    130 H130       34.1720   28.4524    2.5281 H         1 UNK         0.2980 
    131 H131       34.7262   27.2077    0.7858 H         1 UNK         0.0545 
    132 H132       37.1523   25.6076    0.1488 H         1 UNK         0.3459 
    133 H133       38.4097   26.8112    0.0122 H         1 UNK         0.3459 
    134 H134       35.6066   24.8514    1.0585 H         1 UNK         0.0616 
    135 H135       35.8469   25.1368    2.7599 H         1 UNK         0.0616 
    136 H136       34.1802   24.0766    4.2890 H         1 UNK         0.0634 
    137 H137       33.5781   25.7168    4.4216 H         1 UNK         0.0634 
@<TRIPOS>BOND
     1    1    2 1    
     2    1   72 1    
     3    1   73 1    
     4    1   74 1    
     5    2    3 2    
     6    2    4 am   BACKBONE|DICT|INTERRES
     7    4    5 1    
     8    4   75 1    
     9    5    6 1    
    10    5   35 1    
    11    5   76 1    
    12    6    7 1    
    13    6   77 1    
    14    6   78 1    
    15    7    8 1    
    16    8    9 1    
    17    8   79 1    
    18    8   80 1    
    19    9   10 ar   
    20    9   14 ar   
    21   10   11 ar   
    22   10   81 1    
    23   11   12 ar   
    24   11   71 1    
    25   12   13 ar   
    26   12   82 1    
    27   13   14 ar   
    28   13   15 1    
    29   14   83 1    
    30   15   16 1    
    31   15   84 1    
    32   15   85 1    
    33   16   17 1    
    34   17   18 1    
    35   17   86 1    
    36   17   87 1    
    37   18   19 1    
    38   18   37 1    
    39   18   88 1    
    40   19   20 am   BACKBONE|DICT|INTERRES
    41   19   89 1    
    42   20   21 2    
    43   20   22 1    
    44   22   23 1    
    45   22   24 1    
    46   22   90 1    
    47   23   91 1    
    48   23   92 1    
    49   23   93 1    
    50   24   25 am   BACKBONE|DICT|INTERRES
    51   24   94 1    
    52   25   26 2    
    53   25   27 1    
    54   27   28 1    
    55   27   29 1    
    56   27   95 1    
    57   28   96 1    
    58   28   97 1    
    59   28   98 1    
    60   29   30 am   BACKBONE|DICT|INTERRES
    61   29   99 1    
    62   30   31 2    
    63   30   32 1    
    64   32   33 1    
    65   32   34 1    
    66   32  100 1    
    67   33  101 1    
    68   33  102 1    
    69   33  103 1    
    70   34   35 am   BACKBONE|DICT|INTERRES
    71   34  104 1    
    72   35   36 2    
    73   37   38 2    
    74   37   39 am   BACKBONE|DICT|INTERRES
    75   39   40 1    
    76   39  105 1    
    77   40   41 1    
    78   40   42 1    
    79   40  106 1    
    80   41  107 1    
    81   41  108 1    
    82   41  109 1    
    83   42   43 2    
    84   42   44 am   BACKBONE|DICT|INTERRES
    85   44   45 1    
    86   44  110 1    
    87   45   46 1    
    88   45   47 1    
    89   45  111 1    
    90   46  112 1    
    91   46  113 1    
    92   46  114 1    
    93   47   48 2    
    94   47   49 am   BACKBONE|DICT|INTERRES
    95   49   50 1    
    96   49  115 1    
    97   50   51 1    
    98   50   52 1    
    99   50  116 1    
   100   51  117 1    
   101   51  118 1    
   102   51  119 1    
   103   52   53 2    
   104   52   54 am   BACKBONE|DICT|INTERRES
   105   54   55 1    
   106   54  120 1    
   107   55   56 1    
   108   55   57 1    
   109   55  121 1    
   110   56  122 1    
   111   56  123 1    
   112   56  124 1    
   113   57   58 2    
   114   57   59 am   BACKBONE|DICT|INTERRES
   115   59   60 1    
   116   59  125 1    
   117   60   61 1    
   118   60   62 1    
   119   60  126 1    
   120   61  127 1    
   121   61  128 1    
   122   61  129 1    
   123   62   63 2    
   124   62   64 am   BACKBONE|DICT|INTERRES
   125   64   65 1    
   126   64  130 1    
   127   65   66 1    
   128   65   69 1    
   129   65  131 1    
   130   66   67 am   BACKBONE|DICT|INTERRES
   131   66   68 2    
   132   67  132 1    
   133   67  133 1    
   134   69   70 1    
   135   69  134 1    
   136   69  135 1    
   137   70   71 1    
   138   71  136 1    
   139   71  137 1    
@<TRIPOS>SUBSTRUCTURE
     1 UNK         1 GROUP             0       ****    0 ROOT    
