@<TRIPOS>MOLECULE
3R136
137   139    1
SMALL
USER_CHARGES


@<TRIPOS>ATOM
      1 CA         26.6205   23.4720   -0.2619 C.3       0 UNK        -0.1979 
      2 C          27.4789   22.2307   -0.4357 C.2       0 UNK         0.4864 
      3 O          27.5723   21.7002   -1.5435 O.2       0 UNK        -0.5359 
      4 N          28.0851   21.7490    0.6585 N.am      1 UNK        -0.4318 
      5 CA         28.8394   20.4888    0.7034 C.3       1 UNK         0.0824 
      6 C6         29.0965   19.9743    2.1467 C.3       12 UNK        -0.0944 
      7 S7         27.6502   20.1207    3.2558 S.3       12 UNK        -0.2672 
      8 C8         28.2571   21.2836    4.5255 C.3       12 UNK         0.0333 
      9 C9         28.6927   22.6171    3.9313 C.ar      12 UNK        -0.0807 
     10 C10        30.0533   22.9173    3.7982 C.ar      12 UNK        -0.0894 
     11 C11        30.4635   24.1251    3.2277 C.ar      12 UNK        -0.0804 
     12 C12        29.4980   25.0350    2.7912 C.ar      12 UNK        -0.0824 
     13 C13        28.1356   24.7641    2.9478 C.ar      12 UNK        -0.0762 
     14 C14        27.7375   23.5513    3.5181 C.ar      12 UNK        -0.0782 
     15 C15        27.0959   25.7735    2.4827 C.3       12 UNK         0.0230 
     16 S16        26.5050   26.8441    3.8307 S.3       12 UNK        -0.2608 
     17 C17        27.9501   27.9143    4.1654 C.3       12 UNK        -0.0989 
     18 CA         27.9779   29.2517    3.3745 C.3       5 UNK         0.0716 
     19 N          28.1518   29.0653    1.9377 N.am      5 UNK        -0.4135 
     20 C          29.3004   28.8064    1.3081 C.2       4 UNK         0.5031 
     21 O          30.3921   28.6803    1.8730 O.2       4 UNK        -0.5229 
     22 CA         29.2068   28.7105   -0.2262 C.3       4 UNK         0.0329 
     23 CB         29.3082   30.1105   -0.8546 C.3       4 UNK        -0.2001 
     24 N          30.2548   27.8531   -0.7851 N.am      4 UNK        -0.4303 
     25 C          30.2747   26.5180   -0.6858 C.2       3 UNK         0.5044 
     26 O          29.3424   25.8502   -0.2346 O.2       3 UNK        -0.5152 
     27 CA         31.5546   25.8094   -1.1535 C.3       3 UNK         0.0319 
     28 CB         32.8076   26.4351   -0.5054 C.3       3 UNK        -0.2001 
     29 N          31.4610   24.3920   -0.8023 N.am      3 UNK        -0.4354 
     30 C          32.2551   23.4218   -1.2754 C.2       2 UNK         0.4964 
     31 O          33.1250   23.6181   -2.1251 O.2       2 UNK        -0.5047 
     32 CA         32.0931   21.9986   -0.7165 C.3       2 UNK         0.0288 
     33 CB         33.2230   21.6780    0.2808 C.3       2 UNK        -0.2113 
     34 N          30.7968   21.7533   -0.0792 N.am      2 UNK        -0.4145 
     35 C          30.1701   20.5676   -0.0722 C.2       1 UNK         0.5006 
     36 O          30.6033   19.5566   -0.6289 O.2       1 UNK        -0.5103 
     37 C          26.7533   30.1593    3.6017 C.2       5 UNK         0.5055 
     38 O          26.1232   30.5910    2.6301 O.2       5 UNK        -0.5220 
     39 N          26.4491   30.4465    4.8759 N.am      6 UNK        -0.4450 
     40 CA         25.3477   31.2733    5.3931 C.3       6 UNK         0.0367 
     41 CB         23.9675   30.7481    4.9486 C.3       6 UNK        -0.1929 
     42 C          25.5062   32.7752    5.1001 C.2       6 UNK         0.5070 
     43 O          25.4941   33.5721    6.0384 O.2       6 UNK        -0.5237 
     44 N          25.6738   33.1376    3.8221 N.am      7 UNK        -0.4739 
     45 CA         25.9819   34.5007    3.3774 C.3       7 UNK         0.0276 
     46 CB         25.7440   34.6165    1.8629 C.3       7 UNK        -0.1927 
     47 C          27.4224   34.8968    3.7422 C.2       7 UNK         0.5013 
     48 O          27.6460   35.9865    4.2704 O.2       7 UNK        -0.5193 
     49 N          28.3567   33.9762    3.4869 N.am      8 UNK        -0.4253 
     50 CA         29.7611   34.0169    3.8726 C.3       8 UNK         0.0242 
     51 CB         30.5500   34.9969    2.9842 C.3       8 UNK        -0.2000 
     52 C          30.2881   32.5894    3.7151 C.2       8 UNK         0.4948 
     53 O          29.9387   31.9348    2.7307 O.2       8 UNK        -0.5275 
     54 N          31.0962   32.1243    4.6745 N.am      9 UNK        -0.4246 
     55 CA         31.7200   30.8011    4.6472 C.3       9 UNK         0.0261 
     56 CB         32.1243   30.3913    6.0739 C.3       9 UNK        -0.1959 
     57 C          32.9258   30.8133    3.6991 C.2       9 UNK         0.5033 
     58 O          33.9579   31.3938    4.0422 O.2       9 UNK        -0.5390 
     59 N          32.7725   30.1840    2.5295 N.am      10 UNK        -0.4215 
     60 CA         33.8094   30.0857    1.4979 C.3       10 UNK         0.0240 
     61 CB         33.1534   30.3081    0.1250 C.3       10 UNK        -0.1982 
     62 C          34.5720   28.7478    1.5529 C.2       10 UNK         0.4970 
     63 O          35.3417   28.4604    0.6358 O.2       10 UNK        -0.4916 
     64 N          34.3366   27.9469    2.6013 N.am      11 UNK        -0.4279 
     65 CA         34.8863   26.5957    2.8020 C.3       11 UNK         0.1003 
     66 C          36.4357   26.5106    2.9339 C.2       11 UNK         0.5709 
     67 N          37.1392   27.5968    3.2311 N.am      11 UNK        -0.7358 
     68 O          37.0069   25.4361    2.7644 O.2       11 UNK        -0.4999 
     69 C69        34.2110   25.8718    3.9986 C.3       12 UNK        -0.0954 
     70 S70        32.3878   25.9573    4.0039 S.3       12 UNK        -0.2268 
     71 C71        31.9453   24.4488    3.0867 C.3       12 UNK         0.0203 
     72 H72        25.9631   23.6091   -1.1201 H         1 UNK         0.0888 
     73 H73        25.9958   23.3852    0.6263 H         1 UNK         0.0888 
     74 H74        27.2450   24.3581   -0.1690 H         1 UNK         0.0888 
     75 H75        27.9656   22.2136    1.5489 H         1 UNK         0.3017 
     76 H76        28.2253   19.7392    0.1990 H         1 UNK         0.0873 
     77 H77        29.3773   18.9200    2.1115 H         1 UNK         0.0745 
     78 H78        29.9505   20.4793    2.5980 H         1 UNK         0.0745 
     79 H79        29.0791   20.8175    5.0713 H         1 UNK         0.0705 
     80 H80        27.4654   21.4533    5.2566 H         1 UNK         0.0705 
     81 H81        30.7947   22.2055    4.1351 H         1 UNK         0.1334 
     82 H82        29.8139   25.9689    2.3471 H         1 UNK         0.1417 
     83 H83        26.6846   23.3319    3.6366 H         1 UNK         0.1562 
     84 H84        26.2338   25.2478    2.0728 H         1 UNK         0.0748 
     85 H85        27.4882   26.3823    1.6686 H         1 UNK         0.0748 
     86 H86        28.8716   27.3633    3.9851 H         1 UNK         0.0940 
     87 H87        27.9637   28.1148    5.2375 H         1 UNK         0.0940 
     88 H88        28.8300   29.8247    3.7353 H         1 UNK         0.0703 
     89 H89        27.3119   29.2569    1.4063 H         1 UNK         0.3081 
     90 H90        28.2381   28.2799   -0.4904 H         1 UNK         0.0719 
     91 H91        30.2421   30.6077   -0.5917 H         1 UNK         0.0809 
     92 H92        29.2435   30.0656   -1.9418 H         1 UNK         0.0809 
     93 H93        28.4966   30.7527   -0.5097 H         1 UNK         0.0809 
     94 H94        31.0660   28.3213   -1.1582 H         1 UNK         0.2990 
     95 H95        31.6153   25.8993   -2.2399 H         1 UNK         0.0690 
     96 H96        33.7049   25.8404   -0.6746 H         1 UNK         0.0788 
     97 H97        32.6808   26.5466    0.5718 H         1 UNK         0.0788 
     98 H98        33.0132   27.4219   -0.9182 H         1 UNK         0.0788 
     99 H99        30.6957   24.1936   -0.1735 H         1 UNK         0.2993 
    100 H100       32.1950   21.3316   -1.5759 H         1 UNK         0.0949 
    101 H101       33.1551   22.2943    1.1776 H         1 UNK         0.0767 
    102 H102       33.1948   20.6330    0.5900 H         1 UNK         0.0767 
    103 H103       34.2030   21.8549   -0.1647 H         1 UNK         0.0767 
    104 H104       30.3596   22.5196    0.4086 H         1 UNK         0.3013 
    105 H105       27.0505   30.0663    5.5935 H         1 UNK         0.3121 
    106 H106       25.3922   31.1650    6.4782 H         1 UNK         0.0774 
    107 H107       23.1667   31.3064    5.4351 H         1 UNK         0.0815 
    108 H108       23.8152   30.8407    3.8731 H         1 UNK         0.0815 
    109 H109       23.8393   29.6989    5.2149 H         1 UNK         0.0815 
    110 H110       25.6924   32.3947    3.1278 H         1 UNK         0.2987 
    111 H111       25.3056   35.1925    3.8849 H         1 UNK         0.0949 
    112 H112       25.9676   35.6240    1.5094 H         1 UNK         0.0806 
    113 H113       26.3703   33.9251    1.2975 H         1 UNK         0.0806 
    114 H114       24.7042   34.4087    1.6096 H         1 UNK         0.0806 
    115 H115       28.0853   33.1106    3.0372 H         1 UNK         0.3010 
    116 H116       29.8337   34.3221    4.9186 H         1 UNK         0.0829 
    117 H117       30.1884   36.0191    3.0956 H         1 UNK         0.0813 
    118 H118       31.6080   34.9979    3.2491 H         1 UNK         0.0813 
    119 H119       30.4772   34.7292    1.9291 H         1 UNK         0.0813 
    120 H120       31.3697   32.7366    5.4299 H         1 UNK         0.3038 
    121 H121       30.9998   30.0652    4.2871 H         1 UNK         0.0769 
    122 H122       32.8334   31.0931    6.5150 H         1 UNK         0.0811 
    123 H123       32.5952   29.4072    6.0766 H         1 UNK         0.0811 
    124 H124       31.2560   30.3352    6.7306 H         1 UNK         0.0811 
    125 H125       31.8843   29.7240    2.3238 H         1 UNK         0.3204 
    126 H126       34.5523   30.8735    1.6384 H         1 UNK         0.0748 
    127 H127       32.6753   31.2864    0.0724 H         1 UNK         0.0771 
    128 H128       33.8871   30.2638   -0.6809 H         1 UNK         0.0771 
    129 H129       32.3941   29.5553   -0.0764 H         1 UNK         0.0771 
    130 H130       33.6784   28.2556    3.2999 H         1 UNK         0.2980 
    131 H131       34.6389   26.0301    1.9025 H         1 UNK         0.0545 
    132 H132       36.6788   28.4819    3.3687 H         1 UNK         0.3459 
    133 H133       38.1415   27.5296    3.3113 H         1 UNK         0.3459 
    134 H134       34.5502   26.3128    4.9379 H         1 UNK         0.0616 
    135 H135       34.5166   24.8245    4.0346 H         1 UNK         0.0616 
    136 H136       32.5518   23.6171    3.4479 H         1 UNK         0.0634 
    137 H137       32.1924   24.5834    2.0336 H         1 UNK         0.0634 
@<TRIPOS>BOND
     1    1    2 1    
     2    1   72 1    
     3    1   73 1    
     4    1   74 1    
     5    2    3 2    
     6    2    4 am   BACKBONE|DICT|INTERRES
     7    4    5 1    
     8    4   75 1    
     9    5    6 1    
    10    5   35 1    
    11    5   76 1    
    12    6    7 1    
    13    6   77 1    
    14    6   78 1    
    15    7    8 1    
    16    8    9 1    
    17    8   79 1    
    18    8   80 1    
    19    9   10 ar   
    20    9   14 ar   
    21   10   11 ar   
    22   10   81 1    
    23   11   12 ar   
    24   11   71 1    
    25   12   13 ar   
    26   12   82 1    
    27   13   14 ar   
    28   13   15 1    
    29   14   83 1    
    30   15   16 1    
    31   15   84 1    
    32   15   85 1    
    33   16   17 1    
    34   17   18 1    
    35   17   86 1    
    36   17   87 1    
    37   18   19 1    
    38   18   37 1    
    39   18   88 1    
    40   19   20 am   BACKBONE|DICT|INTERRES
    41   19   89 1    
    42   20   21 2    
    43   20   22 1    
    44   22   23 1    
    45   22   24 1    
    46   22   90 1    
    47   23   91 1    
    48   23   92 1    
    49   23   93 1    
    50   24   25 am   BACKBONE|DICT|INTERRES
    51   24   94 1    
    52   25   26 2    
    53   25   27 1    
    54   27   28 1    
    55   27   29 1    
    56   27   95 1    
    57   28   96 1    
    58   28   97 1    
    59   28   98 1    
    60   29   30 am   BACKBONE|DICT|INTERRES
    61   29   99 1    
    62   30   31 2    
    63   30   32 1    
    64   32   33 1    
    65   32   34 1    
    66   32  100 1    
    67   33  101 1    
    68   33  102 1    
    69   33  103 1    
    70   34   35 am   BACKBONE|DICT|INTERRES
    71   34  104 1    
    72   35   36 2    
    73   37   38 2    
    74   37   39 am   BACKBONE|DICT|INTERRES
    75   39   40 1    
    76   39  105 1    
    77   40   41 1    
    78   40   42 1    
    79   40  106 1    
    80   41  107 1    
    81   41  108 1    
    82   41  109 1    
    83   42   43 2    
    84   42   44 am   BACKBONE|DICT|INTERRES
    85   44   45 1    
    86   44  110 1    
    87   45   46 1    
    88   45   47 1    
    89   45  111 1    
    90   46  112 1    
    91   46  113 1    
    92   46  114 1    
    93   47   48 2    
    94   47   49 am   BACKBONE|DICT|INTERRES
    95   49   50 1    
    96   49  115 1    
    97   50   51 1    
    98   50   52 1    
    99   50  116 1    
   100   51  117 1    
   101   51  118 1    
   102   51  119 1    
   103   52   53 2    
   104   52   54 am   BACKBONE|DICT|INTERRES
   105   54   55 1    
   106   54  120 1    
   107   55   56 1    
   108   55   57 1    
   109   55  121 1    
   110   56  122 1    
   111   56  123 1    
   112   56  124 1    
   113   57   58 2    
   114   57   59 am   BACKBONE|DICT|INTERRES
   115   59   60 1    
   116   59  125 1    
   117   60   61 1    
   118   60   62 1    
   119   60  126 1    
   120   61  127 1    
   121   61  128 1    
   122   61  129 1    
   123   62   63 2    
   124   62   64 am   BACKBONE|DICT|INTERRES
   125   64   65 1    
   126   64  130 1    
   127   65   66 1    
   128   65   69 1    
   129   65  131 1    
   130   66   67 am   BACKBONE|DICT|INTERRES
   131   66   68 2    
   132   67  132 1    
   133   67  133 1    
   134   69   70 1    
   135   69  134 1    
   136   69  135 1    
   137   70   71 1    
   138   71  136 1    
   139   71  137 1    
@<TRIPOS>SUBSTRUCTURE
     1 UNK         1 GROUP             0       ****    0 ROOT    
