@<TRIPOS>MOLECULE
3R136
137   139    1
SMALL
USER_CHARGES


@<TRIPOS>ATOM
      1 CA         30.8054   26.1645    5.4366 C.3       0 UNK        -0.1979 
      2 C          29.6296   25.3461    4.9303 C.2       0 UNK         0.4864 
      3 O          28.7752   24.9490    5.7240 O.2       0 UNK        -0.5359 
      4 N          29.5945   25.0750    3.6193 N.am      1 UNK        -0.4318 
      5 CA         28.5656   24.2516    2.9748 C.3       1 UNK         0.0824 
      6 C6         29.0363   23.6811    1.6146 C.3       12 UNK        -0.0944 
      7 S7         30.3409   22.4293    1.8687 S.3       12 UNK        -0.2672 
      8 C8         31.3377   22.5676    0.3505 C.3       12 UNK         0.0333 
      9 C9         32.1278   23.8679    0.2688 C.ar      12 UNK        -0.0807 
     10 C10        32.9854   24.2501    1.3049 C.ar      12 UNK        -0.0894 
     11 C11        33.7217   25.4354    1.2190 C.ar      12 UNK        -0.0804 
     12 C12        33.5930   26.2467    0.0873 C.ar      12 UNK        -0.0824 
     13 C13        32.7471   25.8692   -0.9612 C.ar      12 UNK        -0.0762 
     14 C14        32.0278   24.6738   -0.8677 C.ar      12 UNK        -0.0782 
     15 C15        32.6244   26.7387   -2.2050 C.3       12 UNK         0.0230 
     16 S16        31.1964   27.8644   -2.1115 S.3       12 UNK        -0.2608 
     17 C17        29.8023   26.6988   -2.2848 C.3       12 UNK        -0.0989 
     18 CA         28.4949   27.4002   -2.7148 C.3       5 UNK         0.0716 
     19 N          27.4713   26.4365   -3.1033 N.am      5 UNK        -0.4135 
     20 C          26.5673   26.6360   -4.0705 C.2       4 UNK         0.5031 
     21 O          26.6486   27.5194   -4.9250 O.2       4 UNK        -0.5229 
     22 CA         25.3288   25.7221   -4.0396 C.3       4 UNK         0.0329 
     23 CB         25.5944   24.4170   -4.8072 C.3       4 UNK        -0.2001 
     24 N          24.8897   25.4111   -2.6729 N.am      4 UNK        -0.4303 
     25 C          24.4493   26.3148   -1.7828 C.2       3 UNK         0.5044 
     26 O          24.2918   27.5090   -2.0413 O.2       3 UNK        -0.5152 
     27 CA         24.1487   25.8206   -0.3621 C.3       3 UNK         0.0319 
     28 CB         24.1774   24.2851   -0.1928 C.3       3 UNK        -0.2001 
     29 N          25.1052   26.4353    0.5566 N.am      3 UNK        -0.4354 
     30 C          24.8567   26.7303    1.8363 C.2       2 UNK         0.4964 
     31 O          23.7497   26.5935    2.3635 O.2       2 UNK        -0.5047 
     32 CA         26.0595   27.2171    2.6754 C.3       2 UNK         0.0288 
     33 CB         25.6713   27.5220    4.1371 C.3       2 UNK        -0.2113 
     34 N          27.2111   26.3001    2.6694 N.am      2 UNK        -0.4145 
     35 C          27.2041   24.9684    2.8639 C.2       1 UNK         0.5006 
     36 O          26.1828   24.2904    2.9905 O.2       1 UNK        -0.5103 
     37 C          27.9008   28.2263   -1.5631 C.2       5 UNK         0.5055 
     38 O          27.3920   27.6420   -0.6022 O.2       5 UNK        -0.5220 
     39 N          27.9943   29.5560   -1.6692 N.am      6 UNK        -0.4450 
     40 CA         27.4873   30.5078   -0.6773 C.3       6 UNK         0.0367 
     41 CB         27.3129   31.8787   -1.3537 C.3       6 UNK        -0.1929 
     42 C          28.3681   30.6290    0.5820 C.2       6 UNK         0.5070 
     43 O          27.9892   31.3566    1.5005 O.2       6 UNK        -0.5237 
     44 N          29.5271   29.9538    0.6024 N.am      7 UNK        -0.4739 
     45 CA         30.4758   29.9346    1.7152 C.3       7 UNK         0.0276 
     46 CB         31.7222   29.1323    1.3094 C.3       7 UNK        -0.1927 
     47 C          29.8534   29.3478    2.9921 C.2       7 UNK         0.5013 
     48 O          29.3515   28.2215    2.9646 O.2       7 UNK        -0.5193 
     49 N          29.9241   30.1207    4.0781 N.am      8 UNK        -0.4253 
     50 CA         29.4935   29.7663    5.4238 C.3       8 UNK         0.0242 
     51 CB         28.0946   30.3481    5.6877 C.3       8 UNK        -0.2000 
     52 C          30.5254   30.3686    6.3811 C.2       8 UNK         0.4948 
     53 O          30.9872   31.4854    6.1287 O.2       8 UNK        -0.5275 
     54 N          30.8863   29.6280    7.4389 N.am      9 UNK        -0.4246 
     55 CA         31.8598   29.9491    8.5005 C.3       9 UNK         0.0261 
     56 CB         31.3995   31.1647    9.3285 C.3       9 UNK        -0.1959 
     57 C          33.3218   30.1280    8.0377 C.2       9 UNK         0.5033 
     58 O          34.2273   29.6116    8.6946 O.2       9 UNK        -0.5390 
     59 N          33.5305   30.8272    6.9148 N.am      10 UNK        -0.4215 
     60 CA         34.8198   31.1566    6.2950 C.3       10 UNK         0.0240 
     61 CB         34.5636   32.0316    5.0568 C.3       10 UNK        -0.1982 
     62 C          35.6905   29.9434    5.9189 C.2       10 UNK         0.4970 
     63 O          36.9075   30.0938    5.8026 O.2       10 UNK        -0.4916 
     64 N          35.0642   28.7723    5.7523 N.am      11 UNK        -0.4279 
     65 CA         35.7315   27.4761    5.5680 C.3       11 UNK         0.1003 
     66 C          36.5380   26.9888    6.8094 C.2       11 UNK         0.5709 
     67 N          36.3121   27.5200    8.0070 N.am      11 UNK        -0.7358 
     68 O          37.3883   26.1114    6.6793 O.2       11 UNK        -0.4999 
     69 C69        34.7308   26.3809    5.1187 C.3       12 UNK        -0.0954 
     70 S70        33.8054   26.8109    3.6048 S.3       12 UNK        -0.2268 
     71 C71        34.6654   25.8209    2.3466 C.3       12 UNK         0.0203 
     72 H72        31.0649   26.9549    4.7335 H         1 UNK         0.0888 
     73 H73        30.5719   26.6226    6.3964 H         1 UNK         0.0888 
     74 H74        31.6732   25.5201    5.5712 H         1 UNK         0.0888 
     75 H75        30.3197   25.4348    3.0150 H         1 UNK         0.3017 
     76 H76        28.3845   23.3979    3.6328 H         1 UNK         0.0873 
     77 H77        29.3953   24.4797    0.9627 H         1 UNK         0.0745 
     78 H78        28.2138   23.1943    1.0865 H         1 UNK         0.0745 
     79 H79        32.0393   21.7332    0.3175 H         1 UNK         0.0705 
     80 H80        30.6800   22.4504   -0.5123 H         1 UNK         0.0705 
     81 H81        33.0798   23.6221    2.1805 H         1 UNK         0.1334 
     82 H82        34.1551   27.1683    0.0212 H         1 UNK         0.1417 
     83 H83        31.3873   24.3699   -1.6837 H         1 UNK         0.1562 
     84 H84        32.5462   26.1158   -3.0974 H         1 UNK         0.0748 
     85 H85        33.5292   27.3347   -2.3329 H         1 UNK         0.0748 
     86 H86        29.6674   26.1542   -1.3479 H         1 UNK         0.0940 
     87 H87        30.0741   25.9567   -3.0372 H         1 UNK         0.0940 
     88 H88        28.7166   28.0569   -3.5594 H         1 UNK         0.0703 
     89 H89        27.2814   25.7108   -2.4284 H         1 UNK         0.3081 
     90 H90        24.5147   26.2529   -4.5378 H         1 UNK         0.0719 
     91 H91        26.3842   23.8251   -4.3430 H         1 UNK         0.0809 
     92 H92        24.6980   23.7987   -4.8609 H         1 UNK         0.0809 
     93 H93        25.9033   24.6250   -5.8327 H         1 UNK         0.0809 
     94 H94        24.9631   24.4478   -2.3785 H         1 UNK         0.2990 
     95 H95        23.1420   26.1724   -0.1267 H         1 UNK         0.0690 
     96 H96        23.4848   23.7946   -0.8783 H         1 UNK         0.0788 
     97 H97        23.8758   24.0012    0.8159 H         1 UNK         0.0788 
     98 H98        25.1732   23.8720   -0.3586 H         1 UNK         0.0788 
     99 H99        26.0091   26.6963    0.1623 H         1 UNK         0.2993 
    100 H100       26.4051   28.1463    2.2185 H         1 UNK         0.0949 
    101 H101       26.5331   27.8591    4.7120 H         1 UNK         0.0767 
    102 H102       24.9144   28.3056    4.1880 H         1 UNK         0.0767 
    103 H103       25.2683   26.6403    4.6371 H         1 UNK         0.0767 
    104 H104       28.1127   26.7688    2.6117 H         1 UNK         0.3013 
    105 H105       28.4483   29.9504   -2.4813 H         1 UNK         0.3121 
    106 H106       26.5041   30.1657   -0.3456 H         1 UNK         0.0774 
    107 H107       28.2652   32.2818   -1.7006 H         1 UNK         0.0815 
    108 H108       26.8848   32.6058   -0.6621 H         1 UNK         0.0815 
    109 H109       26.6402   31.8173   -2.2094 H         1 UNK         0.0815 
    110 H110       29.7462   29.3621   -0.1856 H         1 UNK         0.2987 
    111 H111       30.7792   30.9665    1.9046 H         1 UNK         0.0949 
    112 H112       31.4794   28.0888    1.1025 H         1 UNK         0.0806 
    113 H113       32.1958   29.5492    0.4206 H         1 UNK         0.0806 
    114 H114       32.4672   29.1402    2.1058 H         1 UNK         0.0806 
    115 H115       30.3879   31.0189    4.0241 H         1 UNK         0.3010 
    116 H116       29.4646   28.6820    5.5373 H         1 UNK         0.0829 
    117 H117       27.3811   30.0279    4.9291 H         1 UNK         0.0813 
    118 H118       27.7129   30.0248    6.6568 H         1 UNK         0.0813 
    119 H119       28.1048   31.4391    5.6860 H         1 UNK         0.0813 
    120 H120       30.4456   28.7245    7.5430 H         1 UNK         0.3038 
    121 H121       31.8566   29.0853    9.1676 H         1 UNK         0.0769 
    122 H122       32.0744   31.3425   10.1670 H         1 UNK         0.0811 
    123 H123       31.3743   32.0792    8.7351 H         1 UNK         0.0811 
    124 H124       30.4038   31.0075    9.7431 H         1 UNK         0.0811 
    125 H125       32.6963   31.2146    6.4731 H         1 UNK         0.3204 
    126 H126       35.3857   31.7433    7.0211 H         1 UNK         0.0748 
    127 H127       35.5013   32.3278    4.5842 H         1 UNK         0.0771 
    128 H128       33.9716   31.5043    4.3074 H         1 UNK         0.0771 
    129 H129       34.0325   32.9466    5.3203 H         1 UNK         0.0771 
    130 H130       34.0618   28.7443    5.8509 H         1 UNK         0.2980 
    131 H131       36.4600   27.6044    4.7651 H         1 UNK         0.0545 
    132 H132       36.8458   27.1933    8.7964 H         1 UNK         0.3459 
    133 H133       35.6120   28.2425    8.1379 H         1 UNK         0.3459 
    134 H134       34.0010   26.2008    5.9097 H         1 UNK         0.0616 
    135 H135       35.2443   25.4296    4.9712 H         1 UNK         0.0616 
    136 H136       35.0786   24.9146    2.7907 H         1 UNK         0.0634 
    137 H137       35.5136   26.3888    1.9617 H         1 UNK         0.0634 
@<TRIPOS>BOND
     1    1    2 1    
     2    1   72 1    
     3    1   73 1    
     4    1   74 1    
     5    2    3 2    
     6    2    4 am   BACKBONE|DICT|INTERRES
     7    4    5 1    
     8    4   75 1    
     9    5    6 1    
    10    5   35 1    
    11    5   76 1    
    12    6    7 1    
    13    6   77 1    
    14    6   78 1    
    15    7    8 1    
    16    8    9 1    
    17    8   79 1    
    18    8   80 1    
    19    9   10 ar   
    20    9   14 ar   
    21   10   11 ar   
    22   10   81 1    
    23   11   12 ar   
    24   11   71 1    
    25   12   13 ar   
    26   12   82 1    
    27   13   14 ar   
    28   13   15 1    
    29   14   83 1    
    30   15   16 1    
    31   15   84 1    
    32   15   85 1    
    33   16   17 1    
    34   17   18 1    
    35   17   86 1    
    36   17   87 1    
    37   18   19 1    
    38   18   37 1    
    39   18   88 1    
    40   19   20 am   BACKBONE|DICT|INTERRES
    41   19   89 1    
    42   20   21 2    
    43   20   22 1    
    44   22   23 1    
    45   22   24 1    
    46   22   90 1    
    47   23   91 1    
    48   23   92 1    
    49   23   93 1    
    50   24   25 am   BACKBONE|DICT|INTERRES
    51   24   94 1    
    52   25   26 2    
    53   25   27 1    
    54   27   28 1    
    55   27   29 1    
    56   27   95 1    
    57   28   96 1    
    58   28   97 1    
    59   28   98 1    
    60   29   30 am   BACKBONE|DICT|INTERRES
    61   29   99 1    
    62   30   31 2    
    63   30   32 1    
    64   32   33 1    
    65   32   34 1    
    66   32  100 1    
    67   33  101 1    
    68   33  102 1    
    69   33  103 1    
    70   34   35 am   BACKBONE|DICT|INTERRES
    71   34  104 1    
    72   35   36 2    
    73   37   38 2    
    74   37   39 am   BACKBONE|DICT|INTERRES
    75   39   40 1    
    76   39  105 1    
    77   40   41 1    
    78   40   42 1    
    79   40  106 1    
    80   41  107 1    
    81   41  108 1    
    82   41  109 1    
    83   42   43 2    
    84   42   44 am   BACKBONE|DICT|INTERRES
    85   44   45 1    
    86   44  110 1    
    87   45   46 1    
    88   45   47 1    
    89   45  111 1    
    90   46  112 1    
    91   46  113 1    
    92   46  114 1    
    93   47   48 2    
    94   47   49 am   BACKBONE|DICT|INTERRES
    95   49   50 1    
    96   49  115 1    
    97   50   51 1    
    98   50   52 1    
    99   50  116 1    
   100   51  117 1    
   101   51  118 1    
   102   51  119 1    
   103   52   53 2    
   104   52   54 am   BACKBONE|DICT|INTERRES
   105   54   55 1    
   106   54  120 1    
   107   55   56 1    
   108   55   57 1    
   109   55  121 1    
   110   56  122 1    
   111   56  123 1    
   112   56  124 1    
   113   57   58 2    
   114   57   59 am   BACKBONE|DICT|INTERRES
   115   59   60 1    
   116   59  125 1    
   117   60   61 1    
   118   60   62 1    
   119   60  126 1    
   120   61  127 1    
   121   61  128 1    
   122   61  129 1    
   123   62   63 2    
   124   62   64 am   BACKBONE|DICT|INTERRES
   125   64   65 1    
   126   64  130 1    
   127   65   66 1    
   128   65   69 1    
   129   65  131 1    
   130   66   67 am   BACKBONE|DICT|INTERRES
   131   66   68 2    
   132   67  132 1    
   133   67  133 1    
   134   69   70 1    
   135   69  134 1    
   136   69  135 1    
   137   70   71 1    
   138   71  136 1    
   139   71  137 1    
@<TRIPOS>SUBSTRUCTURE
     1 UNK         1 GROUP             0       ****    0 ROOT    
