@<TRIPOS>MOLECULE
3R136
137   139    1
SMALL
USER_CHARGES


@<TRIPOS>ATOM
      1 CA         31.4880   20.2659   -1.4599 C.3       0 UNK        -0.1979 
      2 C          31.0438   21.6803   -1.8024 C.2       0 UNK         0.4864 
      3 O          30.8677   21.9969   -2.9796 O.2       0 UNK        -0.5359 
      4 N          30.8646   22.5308   -0.7823 N.am      1 UNK        -0.4318 
      5 CA         30.4427   23.9314   -0.9195 C.3       1 UNK         0.0824 
      6 C6         30.6512   24.7282    0.3916 C.3       12 UNK        -0.0944 
      7 S7         32.4107   24.8738    0.8476 S.3       12 UNK        -0.2672 
      8 C8         32.5112   23.8647    2.3605 C.3       12 UNK         0.0333 
      9 C9         31.7311   24.4831    3.5120 C.ar      12 UNK        -0.0807 
     10 C10        32.2256   25.6123    4.1690 C.ar      12 UNK        -0.0894 
     11 C11        31.5176   26.1901    5.2250 C.ar      12 UNK        -0.0804 
     12 C12        30.3076   25.6233    5.6344 C.ar      12 UNK        -0.0824 
     13 C13        29.7973   24.4971    4.9791 C.ar      12 UNK        -0.0762 
     14 C14        30.5167   23.9276    3.9244 C.ar      12 UNK        -0.0782 
     15 C15        28.4652   23.8951    5.4021 C.3       12 UNK         0.0230 
     16 S16        27.0789   25.0545    5.1791 S.3       12 UNK        -0.2608 
     17 C17        27.1403   25.4266    3.3880 C.3       12 UNK        -0.0989 
     18 CA         27.7554   26.8080    3.0318 C.3       5 UNK         0.0716 
     19 N          27.8195   27.0049    1.5793 N.am      5 UNK        -0.4135 
     20 C          28.4156   28.0430    0.9670 C.2       4 UNK         0.5031 
     21 O          29.1557   28.8396    1.5467 O.2       4 UNK        -0.5229 
     22 CA         28.0875   28.2923   -0.5201 C.3       4 UNK         0.0329 
     23 CB         29.3389   28.2167   -1.4073 C.3       4 UNK        -0.2001 
     24 N          27.0384   27.4202   -1.0587 N.am      4 UNK        -0.4303 
     25 C          25.7392   27.5154   -0.7329 C.2       3 UNK         0.5044 
     26 O          25.3035   28.3507    0.0597 O.2       3 UNK        -0.5152 
     27 CA         24.7709   26.4765   -1.3303 C.3       3 UNK         0.0319 
     28 CB         24.1127   27.0298   -2.6036 C.3       3 UNK        -0.2001 
     29 N          25.3859   25.1783   -1.6269 N.am      3 UNK        -0.4354 
     30 C          26.0028   24.3918   -0.7336 C.2       2 UNK         0.4964 
     31 O          26.1143   24.6770    0.4596 O.2       2 UNK        -0.5047 
     32 CA         26.6679   23.1020   -1.2534 C.3       2 UNK         0.0288 
     33 CB         26.3837   22.7901   -2.7413 C.3       2 UNK        -0.2113 
     34 N          28.1143   23.1232   -1.0007 N.am      2 UNK        -0.4145 
     35 C          28.9815   24.0718   -1.3940 C.2       1 UNK         0.5006 
     36 O          28.6673   25.0423   -2.0863 O.2       1 UNK        -0.5103 
     37 C          27.0035   27.9727    3.7191 C.2       5 UNK         0.5055 
     38 O          27.4405   28.4267    4.7764 O.2       5 UNK        -0.5220 
     39 N          25.9236   28.4735    3.0934 N.am      6 UNK        -0.4450 
     40 CA         25.1361   29.6055    3.5967 C.3       6 UNK         0.0367 
     41 CB         23.8115   29.7026    2.8237 C.3       6 UNK        -0.1929 
     42 C          25.9009   30.9390    3.5324 C.2       6 UNK         0.5070 
     43 O          25.7131   31.7891    4.4026 O.2       6 UNK        -0.5237 
     44 N          26.7695   31.0845    2.5224 N.am      7 UNK        -0.4739 
     45 CA         27.7120   32.1996    2.3907 C.3       7 UNK         0.0276 
     46 CB         28.1482   32.3096    0.9198 C.3       7 UNK        -0.1927 
     47 C          28.9465   32.0475    3.3007 C.2       7 UNK         0.5013 
     48 O          29.6436   33.0355    3.5323 O.2       7 UNK        -0.5193 
     49 N          29.2015   30.8148    3.7666 N.am      8 UNK        -0.4253 
     50 CA         30.3633   30.3462    4.5278 C.3       8 UNK         0.0242 
     51 CB         30.3680   30.9501    5.9474 C.3       8 UNK        -0.2000 
     52 C          31.6887   30.5614    3.7706 C.2       8 UNK         0.4948 
     53 O          32.6937   30.9251    4.3829 O.2       8 UNK        -0.5275 
     54 N          31.6568   30.3425    2.4474 N.am      9 UNK        -0.4246 
     55 CA         32.6789   30.7821    1.4912 C.3       9 UNK         0.0261 
     56 CB         32.2297   30.4209    0.0680 C.3       9 UNK        -0.1959 
     57 C          34.1048   30.2650    1.7469 C.2       9 UNK         0.5033 
     58 O          35.0562   31.0259    1.5631 O.2       9 UNK        -0.5390 
     59 N          34.2316   28.9928    2.1456 N.am      10 UNK        -0.4215 
     60 CA         35.5226   28.3356    2.3783 C.3       10 UNK         0.0240 
     61 CB         35.4679   26.9014    1.8230 C.3       10 UNK        -0.1982 
     62 C          35.9638   28.3453    3.8542 C.2       10 UNK         0.4970 
     63 O          37.0664   27.8734    4.1369 O.2       10 UNK        -0.4916 
     64 N          35.1259   28.8563    4.7661 N.am      11 UNK        -0.4279 
     65 CA         35.4409   28.9709    6.1995 C.3       11 UNK         0.1003 
     66 C          36.1958   30.2895    6.5221 C.2       11 UNK         0.5709 
     67 N          36.8526   30.3573    7.6726 N.am      11 UNK        -0.7358 
     68 O          36.1859   31.2542    5.7591 O.2       11 UNK        -0.4999 
     69 C69        34.1771   28.8017    7.0843 C.3       12 UNK        -0.0954 
     70 S70        33.4720   27.1229    6.9545 S.3       12 UNK        -0.2268 
     71 C71        32.0476   27.4526    5.8812 C.3       12 UNK         0.0203 
     72 H72        30.7512   19.5453   -1.8138 H         1 UNK         0.0888 
     73 H73        32.4399   20.0450   -1.9422 H         1 UNK         0.0888 
     74 H74        31.6119   20.1249   -0.3863 H         1 UNK         0.0888 
     75 H75        31.0520   22.2186    0.1588 H         1 UNK         0.3017 
     76 H76        31.0639   24.3875   -1.6939 H         1 UNK         0.0873 
     77 H77        30.0798   24.2816    1.2055 H         1 UNK         0.0745 
     78 H78        30.2733   25.7454    0.2939 H         1 UNK         0.0745 
     79 H79        33.5592   23.7689    2.6483 H         1 UNK         0.0705 
     80 H80        32.1610   22.8537    2.1485 H         1 UNK         0.0705 
     81 H81        33.1616   26.0501    3.8582 H         1 UNK         0.1334 
     82 H82        29.7475   26.0705    6.4446 H         1 UNK         0.1417 
     83 H83        30.1278   23.0539    3.4195 H         1 UNK         0.1562 
     84 H84        28.5215   23.6106    6.4536 H         1 UNK         0.0748 
     85 H85        28.2526   22.9796    4.8478 H         1 UNK         0.0748 
     86 H86        26.1182   25.3637    3.0104 H         1 UNK         0.0940 
     87 H87        27.6897   24.6334    2.8786 H         1 UNK         0.0940 
     88 H88        28.7838   26.8247    3.3990 H         1 UNK         0.0703 
     89 H89        27.2454   26.3793    1.0252 H         1 UNK         0.3081 
     90 H90        27.7159   29.3173   -0.5811 H         1 UNK         0.0719 
     91 H91        29.0957   28.4063   -2.4528 H         1 UNK         0.0809 
     92 H92        30.0669   28.9687   -1.1099 H         1 UNK         0.0809 
     93 H93        29.8319   27.2486   -1.3511 H         1 UNK         0.0809 
     94 H94        27.3423   26.6687   -1.6694 H         1 UNK         0.2990 
     95 H95        23.9880   26.3034   -0.5889 H         1 UNK         0.0690 
     96 H96        24.8430   27.1944   -3.3971 H         1 UNK         0.0788 
     97 H97        23.6243   27.9855   -2.4067 H         1 UNK         0.0788 
     98 H98        23.3491   26.3510   -2.9839 H         1 UNK         0.0788 
     99 H99        25.3716   24.8788   -2.5913 H         1 UNK         0.2993 
    100 H100       26.2544   22.2874   -0.6567 H         1 UNK         0.0949 
    101 H101       26.7823   23.5537   -3.4104 H         1 UNK         0.0767 
    102 H102       26.8343   21.8402   -3.0297 H         1 UNK         0.0767 
    103 H103       25.3130   22.7022   -2.9307 H         1 UNK         0.0767 
    104 H104       28.4673   22.3783   -0.4173 H         1 UNK         0.3013 
    105 H105       25.6474   28.0979    2.1933 H         1 UNK         0.3121 
    106 H106       24.9022   29.4105    4.6458 H         1 UNK         0.0774 
    107 H107       23.1829   30.4961    3.2300 H         1 UNK         0.0815 
    108 H108       23.9727   29.9262    1.7686 H         1 UNK         0.0815 
    109 H109       23.2433   28.7747    2.8881 H         1 UNK         0.0815 
    110 H110       26.8407   30.3421    1.8419 H         1 UNK         0.2987 
    111 H111       27.2063   33.1263    2.6718 H         1 UNK         0.0949 
    112 H112       28.6862   31.4207    0.5887 H         1 UNK         0.0806 
    113 H113       27.2922   32.4515    0.2599 H         1 UNK         0.0806 
    114 H114       28.8128   33.1624    0.7742 H         1 UNK         0.0806 
    115 H115       28.5580   30.0846    3.4919 H         1 UNK         0.3010 
    116 H116       30.2321   29.2681    4.6220 H         1 UNK         0.0829 
    117 H117       31.1615   30.5177    6.5570 H         1 UNK         0.0813 
    118 H118       30.5264   32.0287    5.9269 H         1 UNK         0.0813 
    119 H119       29.4255   30.7579    6.4602 H         1 UNK         0.0813 
    120 H120       30.7945   29.9759    2.0540 H         1 UNK         0.3038 
    121 H121       32.7198   31.8712    1.5617 H         1 UNK         0.0769 
    122 H122       32.1390   29.3416   -0.0595 H         1 UNK         0.0811 
    123 H123       32.9479   30.7772   -0.6719 H         1 UNK         0.0811 
    124 H124       31.2683   30.8757   -0.1716 H         1 UNK         0.0811 
    125 H125       33.3970   28.4367    2.2644 H         1 UNK         0.3204 
    126 H126       36.3031   28.8602    1.8230 H         1 UNK         0.0748 
    127 H127       36.4418   26.4158    1.8972 H         1 UNK         0.0771 
    128 H128       34.7571   26.2785    2.3616 H         1 UNK         0.0771 
    129 H129       35.1863   26.8941    0.7697 H         1 UNK         0.0771 
    130 H130       34.2946   29.3431    4.4574 H         1 UNK         0.2980 
    131 H131       36.1239   28.1609    6.4641 H         1 UNK         0.0545 
    132 H132       37.3449   31.2056    7.9053 H         1 UNK         0.3459 
    133 H133       36.8703   29.5770    8.3108 H         1 UNK         0.3459 
    134 H134       34.4200   28.9610    8.1362 H         1 UNK         0.0616 
    135 H135       33.4246   29.5508    6.8329 H         1 UNK         0.0616 
    136 H136       32.3528   28.1427    5.0971 H         1 UNK         0.0634 
    137 H137       31.2691   27.9507    6.4608 H         1 UNK         0.0634 
@<TRIPOS>BOND
     1    1    2 1    
     2    1   72 1    
     3    1   73 1    
     4    1   74 1    
     5    2    3 2    
     6    2    4 am   BACKBONE|DICT|INTERRES
     7    4    5 1    
     8    4   75 1    
     9    5    6 1    
    10    5   35 1    
    11    5   76 1    
    12    6    7 1    
    13    6   77 1    
    14    6   78 1    
    15    7    8 1    
    16    8    9 1    
    17    8   79 1    
    18    8   80 1    
    19    9   10 ar   
    20    9   14 ar   
    21   10   11 ar   
    22   10   81 1    
    23   11   12 ar   
    24   11   71 1    
    25   12   13 ar   
    26   12   82 1    
    27   13   14 ar   
    28   13   15 1    
    29   14   83 1    
    30   15   16 1    
    31   15   84 1    
    32   15   85 1    
    33   16   17 1    
    34   17   18 1    
    35   17   86 1    
    36   17   87 1    
    37   18   19 1    
    38   18   37 1    
    39   18   88 1    
    40   19   20 am   BACKBONE|DICT|INTERRES
    41   19   89 1    
    42   20   21 2    
    43   20   22 1    
    44   22   23 1    
    45   22   24 1    
    46   22   90 1    
    47   23   91 1    
    48   23   92 1    
    49   23   93 1    
    50   24   25 am   BACKBONE|DICT|INTERRES
    51   24   94 1    
    52   25   26 2    
    53   25   27 1    
    54   27   28 1    
    55   27   29 1    
    56   27   95 1    
    57   28   96 1    
    58   28   97 1    
    59   28   98 1    
    60   29   30 am   BACKBONE|DICT|INTERRES
    61   29   99 1    
    62   30   31 2    
    63   30   32 1    
    64   32   33 1    
    65   32   34 1    
    66   32  100 1    
    67   33  101 1    
    68   33  102 1    
    69   33  103 1    
    70   34   35 am   BACKBONE|DICT|INTERRES
    71   34  104 1    
    72   35   36 2    
    73   37   38 2    
    74   37   39 am   BACKBONE|DICT|INTERRES
    75   39   40 1    
    76   39  105 1    
    77   40   41 1    
    78   40   42 1    
    79   40  106 1    
    80   41  107 1    
    81   41  108 1    
    82   41  109 1    
    83   42   43 2    
    84   42   44 am   BACKBONE|DICT|INTERRES
    85   44   45 1    
    86   44  110 1    
    87   45   46 1    
    88   45   47 1    
    89   45  111 1    
    90   46  112 1    
    91   46  113 1    
    92   46  114 1    
    93   47   48 2    
    94   47   49 am   BACKBONE|DICT|INTERRES
    95   49   50 1    
    96   49  115 1    
    97   50   51 1    
    98   50   52 1    
    99   50  116 1    
   100   51  117 1    
   101   51  118 1    
   102   51  119 1    
   103   52   53 2    
   104   52   54 am   BACKBONE|DICT|INTERRES
   105   54   55 1    
   106   54  120 1    
   107   55   56 1    
   108   55   57 1    
   109   55  121 1    
   110   56  122 1    
   111   56  123 1    
   112   56  124 1    
   113   57   58 2    
   114   57   59 am   BACKBONE|DICT|INTERRES
   115   59   60 1    
   116   59  125 1    
   117   60   61 1    
   118   60   62 1    
   119   60  126 1    
   120   61  127 1    
   121   61  128 1    
   122   61  129 1    
   123   62   63 2    
   124   62   64 am   BACKBONE|DICT|INTERRES
   125   64   65 1    
   126   64  130 1    
   127   65   66 1    
   128   65   69 1    
   129   65  131 1    
   130   66   67 am   BACKBONE|DICT|INTERRES
   131   66   68 2    
   132   67  132 1    
   133   67  133 1    
   134   69   70 1    
   135   69  134 1    
   136   69  135 1    
   137   70   71 1    
   138   71  136 1    
   139   71  137 1    
@<TRIPOS>SUBSTRUCTURE
     1 UNK         1 GROUP             0       ****    0 ROOT    
