@<TRIPOS>MOLECULE
3R136
137   139    1
SMALL
USER_CHARGES


@<TRIPOS>ATOM
      1 CA         27.7652   20.4842    6.7596 C.3       0 UNK        -0.1979 
      2 C          27.5021   20.5355    5.2616 C.2       0 UNK         0.4864 
      3 O          26.5173   19.9612    4.7938 O.2       0 UNK        -0.5359 
      4 N          28.3779   21.2111    4.5062 N.am      1 UNK        -0.4318 
      5 CA         28.2446   21.4228    3.0625 C.3       1 UNK         0.0824 
      6 C6         29.5902   21.8816    2.4424 C.3       12 UNK        -0.0944 
      7 S7         29.6540   21.6263    0.6369 S.3       12 UNK        -0.2672 
      8 C8         31.4272   21.8616    0.2986 C.3       12 UNK         0.0333 
      9 C9         31.8147   23.3337    0.2819 C.ar      12 UNK        -0.0807 
     10 C10        32.3246   23.9458    1.4302 C.ar      12 UNK        -0.0894 
     11 C11        32.7063   25.2910    1.4076 C.ar      12 UNK        -0.0804 
     12 C12        32.5707   26.0256    0.2253 C.ar      12 UNK        -0.0824 
     13 C13        32.0432   25.4324   -0.9266 C.ar      12 UNK        -0.0762 
     14 C14        31.6811   24.0803   -0.8925 C.ar      12 UNK        -0.0782 
     15 C15        31.8742   26.2514   -2.2029 C.3       12 UNK         0.0230 
     16 S16        30.1825   26.1237   -2.8631 S.3       12 UNK        -0.2608 
     17 C17        30.1258   27.4700   -4.1046 C.3       12 UNK        -0.0989 
     18 CA         29.2853   28.6983   -3.6526 C.3       5 UNK         0.0716 
     19 N          28.0431   28.2611   -3.0172 N.am      5 UNK        -0.4135 
     20 C          26.9701   28.9905   -2.6958 C.2       4 UNK         0.5031 
     21 O          26.7979   30.1580   -3.0451 O.2       4 UNK        -0.5229 
     22 CA         25.9292   28.2876   -1.7976 C.3       4 UNK         0.0329 
     23 CB         24.7423   27.7855   -2.6347 C.3       4 UNK        -0.2001 
     24 N          26.4900   27.1621   -1.0317 N.am      4 UNK        -0.4303 
     25 C          27.4446   27.2677   -0.0969 C.2       3 UNK         0.5044 
     26 O          27.8888   28.3500    0.2832 O.2       3 UNK        -0.5152 
     27 CA         28.0434   25.9592    0.4529 C.3       3 UNK         0.0319 
     28 CB         29.1126   26.2116    1.5304 C.3       3 UNK        -0.2001 
     29 N          27.0509   25.0301    0.9905 N.am      3 UNK        -0.4354 
     30 C          26.2134   24.2629    0.2826 C.2       2 UNK         0.4964 
     31 O          26.0785   24.3470   -0.9401 O.2       2 UNK        -0.5047 
     32 CA         25.4506   23.1882    1.0815 C.3       2 UNK         0.0288 
     33 CB         24.4239   22.4252    0.2235 C.3       2 UNK        -0.2113 
     34 N          26.3990   22.2299    1.6566 N.am      2 UNK        -0.4145 
     35 C          27.1228   22.4389    2.7648 C.2       1 UNK         0.5006 
     36 O          26.9787   23.4252    3.4942 O.2       1 UNK        -0.5103 
     37 C          30.1293   29.6608   -2.7835 C.2       5 UNK         0.5055 
     38 O          31.0209   30.3127   -3.3303 O.2       5 UNK        -0.5220 
     39 N          29.8704   29.7338   -1.4709 N.am      6 UNK        -0.4450 
     40 CA         30.5856   30.5805   -0.5201 C.3       6 UNK         0.0367 
     41 CB         31.7835   29.8010    0.0661 C.3       6 UNK        -0.1929 
     42 C          29.5830   31.0949    0.5257 C.2       6 UNK         0.5070 
     43 O          28.5283   31.6087    0.1482 O.2       6 UNK        -0.5237 
     44 N          29.9195   30.9545    1.8103 N.am      7 UNK        -0.4739 
     45 CA         29.0935   31.2733    2.9683 C.3       7 UNK         0.0276 
     46 CB         29.0583   32.7962    3.2002 C.3       7 UNK        -0.1927 
     47 C          29.7122   30.5627    4.1742 C.2       7 UNK         0.5013 
     48 O          30.9205   30.3111    4.1688 O.2       7 UNK        -0.5193 
     49 N          28.9095   30.3105    5.2166 N.am      8 UNK        -0.4253 
     50 CA         29.3545   29.6814    6.4686 C.3       8 UNK         0.0242 
     51 CB         28.1519   29.4875    7.4055 C.3       8 UNK        -0.2000 
     52 C          30.4790   30.4538    7.1843 C.2       8 UNK         0.4948 
     53 O          31.3671   29.8314    7.7661 O.2       8 UNK        -0.5275 
     54 N          30.4499   31.7900    7.0791 N.am      9 UNK        -0.4246 
     55 CA         31.4913   32.6923    7.5753 C.3       9 UNK         0.0261 
     56 CB         30.9638   34.1361    7.5415 C.3       9 UNK        -0.1959 
     57 C          32.8214   32.5893    6.8035 C.2       9 UNK         0.5033 
     58 O          33.8648   32.9042    7.3775 O.2       9 UNK        -0.5390 
     59 N          32.7713   32.1628    5.5328 N.am      10 UNK        -0.4215 
     60 CA         33.9492   31.9137    4.7010 C.3       10 UNK         0.0240 
     61 CB         33.6097   32.1597    3.2212 C.3       10 UNK        -0.1982 
     62 C          34.4836   30.4903    4.9180 C.2       10 UNK         0.4970 
     63 O          35.6999   30.3157    5.0031 O.2       10 UNK        -0.4916 
     64 N          33.5760   29.5082    5.0163 N.am      11 UNK        -0.4279 
     65 CA         33.8981   28.1093    5.3353 C.3       11 UNK         0.1003 
     66 C          34.4859   27.9164    6.7608 C.2       11 UNK         0.5709 
     67 N          33.9664   28.5928    7.7779 N.am      11 UNK        -0.7358 
     68 O          35.4261   27.1466    6.9428 O.2       11 UNK        -0.4999 
     69 C69        32.6895   27.1641    5.1195 C.3       12 UNK        -0.0954 
     70 S70        32.0991   27.1208    3.3961 S.3       12 UNK        -0.2268 
     71 C71        33.2758   25.9445    2.6581 C.3       12 UNK         0.0203 
     72 H72        26.9321   20.9306    7.3018 H         1 UNK         0.0888 
     73 H73        27.8707   19.4502    7.0870 H         1 UNK         0.0888 
     74 H74        28.6737   21.0205    7.0329 H         1 UNK         0.0888 
     75 H75        29.1473   21.6906    4.9509 H         1 UNK         0.3017 
     76 H76        27.9690   20.4619    2.6213 H         1 UNK         0.0873 
     77 H77        29.7997   22.9286    2.6709 H         1 UNK         0.0745 
     78 H78        30.4093   21.3074    2.8789 H         1 UNK         0.0745 
     79 H79        32.0215   21.3145    1.0321 H         1 UNK         0.0705 
     80 H80        31.6586   21.4137   -0.6689 H         1 UNK         0.0705 
     81 H81        32.4290   23.3717    2.3406 H         1 UNK         0.1334 
     82 H82        32.8704   27.0636    0.2109 H         1 UNK         0.1417 
     83 H83        31.2818   23.6105   -1.7812 H         1 UNK         0.1562 
     84 H84        32.5841   25.9029   -2.9540 H         1 UNK         0.0748 
     85 H85        32.1021   27.3017   -2.0162 H         1 UNK         0.0748 
     86 H86        29.6748   27.0499   -5.0051 H         1 UNK         0.0940 
     87 H87        31.1371   27.7555   -4.4026 H         1 UNK         0.0940 
     88 H88        29.0076   29.2632   -4.5449 H         1 UNK         0.0703 
     89 H89        28.0647   27.3044   -2.6938 H         1 UNK         0.3081 
     90 H90        25.5619   29.0280   -1.0840 H         1 UNK         0.0719 
     91 H91        24.2877   28.6024   -3.1971 H         1 UNK         0.0809 
     92 H92        23.9645   27.3566   -2.0027 H         1 UNK         0.0809 
     93 H93        25.0486   27.0244   -3.3536 H         1 UNK         0.0809 
     94 H94        26.1766   26.2246   -1.2722 H         1 UNK         0.2990 
     95 H95        28.5414   25.4659   -0.3842 H         1 UNK         0.0690 
     96 H96        29.5908   25.2829    1.8411 H         1 UNK         0.0788 
     97 H97        28.6935   26.6895    2.4166 H         1 UNK         0.0788 
     98 H98        29.9021   26.8620    1.1520 H         1 UNK         0.0788 
     99 H99        27.0854   24.8707    1.9914 H         1 UNK         0.2993 
    100 H100       24.9091   23.6927    1.8852 H         1 UNK         0.0949 
    101 H101       24.9000   21.8907   -0.5997 H         1 UNK         0.0767 
    102 H102       23.8717   21.6987    0.8200 H         1 UNK         0.0767 
    103 H103       23.6933   23.1094   -0.2103 H         1 UNK         0.0767 
    104 H104       26.6195   21.4263    1.0853 H         1 UNK         0.3013 
    105 H105       29.0852   29.2229   -1.0763 H         1 UNK         0.3121 
    106 H106       30.9673   31.4656   -1.0331 H         1 UNK         0.0774 
    107 H107       32.3865   30.4301    0.7207 H         1 UNK         0.0815 
    108 H108       31.4566   28.9324    0.6393 H         1 UNK         0.0815 
    109 H109       32.4463   29.4486   -0.7240 H         1 UNK         0.0815 
    110 H110       30.7874   30.4923    2.0542 H         1 UNK         0.2987 
    111 H111       28.0842   30.8893    2.8041 H         1 UNK         0.0949 
    112 H112       30.0588   33.2029    3.3544 H         1 UNK         0.0806 
    113 H113       28.6144   33.3187    2.3529 H         1 UNK         0.0806 
    114 H114       28.4622   33.0482    4.0780 H         1 UNK         0.0806 
    115 H115       27.9316   30.5561    5.1533 H         1 UNK         0.3010 
    116 H116       29.7505   28.6961    6.2141 H         1 UNK         0.0829 
    117 H117       27.3901   28.8554    6.9487 H         1 UNK         0.0813 
    118 H118       28.4563   29.0031    8.3347 H         1 UNK         0.0813 
    119 H119       27.6868   30.4378    7.6709 H         1 UNK         0.0813 
    120 H120       29.6735   32.2134    6.5922 H         1 UNK         0.3038 
    121 H121       31.6969   32.4273    8.6148 H         1 UNK         0.0769 
    122 H122       30.7226   34.4555    6.5268 H         1 UNK         0.0811 
    123 H123       31.7072   34.8320    7.9334 H         1 UNK         0.0811 
    124 H124       30.0674   34.2465    8.1521 H         1 UNK         0.0811 
    125 H125       31.8848   31.8519    5.1547 H         1 UNK         0.3204 
    126 H126       34.7400   32.6142    4.9789 H         1 UNK         0.0748 
    127 H127       33.2566   33.1784    3.0601 H         1 UNK         0.0771 
    128 H128       34.4898   32.0181    2.5926 H         1 UNK         0.0771 
    129 H129       32.8408   31.4789    2.8594 H         1 UNK         0.0771 
    130 H130       32.5947   29.7210    4.8644 H         1 UNK         0.2980 
    131 H131       34.6794   27.8009    4.6380 H         1 UNK         0.0545 
    132 H132       33.1306   29.1587    7.6565 H         1 UNK         0.3459 
    133 H133       34.3542   28.4686    8.6988 H         1 UNK         0.3459 
    134 H134       32.9309   26.1447    5.4263 H         1 UNK         0.0616 
    135 H135       31.8553   27.4751    5.7504 H         1 UNK         0.0616 
    136 H136       33.5422   25.1807    3.3899 H         1 UNK         0.0634 
    137 H137       34.1992   26.4702    2.4116 H         1 UNK         0.0634 
@<TRIPOS>BOND
     1    1    2 1    
     2    1   72 1    
     3    1   73 1    
     4    1   74 1    
     5    2    3 2    
     6    2    4 am   BACKBONE|DICT|INTERRES
     7    4    5 1    
     8    4   75 1    
     9    5    6 1    
    10    5   35 1    
    11    5   76 1    
    12    6    7 1    
    13    6   77 1    
    14    6   78 1    
    15    7    8 1    
    16    8    9 1    
    17    8   79 1    
    18    8   80 1    
    19    9   10 ar   
    20    9   14 ar   
    21   10   11 ar   
    22   10   81 1    
    23   11   12 ar   
    24   11   71 1    
    25   12   13 ar   
    26   12   82 1    
    27   13   14 ar   
    28   13   15 1    
    29   14   83 1    
    30   15   16 1    
    31   15   84 1    
    32   15   85 1    
    33   16   17 1    
    34   17   18 1    
    35   17   86 1    
    36   17   87 1    
    37   18   19 1    
    38   18   37 1    
    39   18   88 1    
    40   19   20 am   BACKBONE|DICT|INTERRES
    41   19   89 1    
    42   20   21 2    
    43   20   22 1    
    44   22   23 1    
    45   22   24 1    
    46   22   90 1    
    47   23   91 1    
    48   23   92 1    
    49   23   93 1    
    50   24   25 am   BACKBONE|DICT|INTERRES
    51   24   94 1    
    52   25   26 2    
    53   25   27 1    
    54   27   28 1    
    55   27   29 1    
    56   27   95 1    
    57   28   96 1    
    58   28   97 1    
    59   28   98 1    
    60   29   30 am   BACKBONE|DICT|INTERRES
    61   29   99 1    
    62   30   31 2    
    63   30   32 1    
    64   32   33 1    
    65   32   34 1    
    66   32  100 1    
    67   33  101 1    
    68   33  102 1    
    69   33  103 1    
    70   34   35 am   BACKBONE|DICT|INTERRES
    71   34  104 1    
    72   35   36 2    
    73   37   38 2    
    74   37   39 am   BACKBONE|DICT|INTERRES
    75   39   40 1    
    76   39  105 1    
    77   40   41 1    
    78   40   42 1    
    79   40  106 1    
    80   41  107 1    
    81   41  108 1    
    82   41  109 1    
    83   42   43 2    
    84   42   44 am   BACKBONE|DICT|INTERRES
    85   44   45 1    
    86   44  110 1    
    87   45   46 1    
    88   45   47 1    
    89   45  111 1    
    90   46  112 1    
    91   46  113 1    
    92   46  114 1    
    93   47   48 2    
    94   47   49 am   BACKBONE|DICT|INTERRES
    95   49   50 1    
    96   49  115 1    
    97   50   51 1    
    98   50   52 1    
    99   50  116 1    
   100   51  117 1    
   101   51  118 1    
   102   51  119 1    
   103   52   53 2    
   104   52   54 am   BACKBONE|DICT|INTERRES
   105   54   55 1    
   106   54  120 1    
   107   55   56 1    
   108   55   57 1    
   109   55  121 1    
   110   56  122 1    
   111   56  123 1    
   112   56  124 1    
   113   57   58 2    
   114   57   59 am   BACKBONE|DICT|INTERRES
   115   59   60 1    
   116   59  125 1    
   117   60   61 1    
   118   60   62 1    
   119   60  126 1    
   120   61  127 1    
   121   61  128 1    
   122   61  129 1    
   123   62   63 2    
   124   62   64 am   BACKBONE|DICT|INTERRES
   125   64   65 1    
   126   64  130 1    
   127   65   66 1    
   128   65   69 1    
   129   65  131 1    
   130   66   67 am   BACKBONE|DICT|INTERRES
   131   66   68 2    
   132   67  132 1    
   133   67  133 1    
   134   69   70 1    
   135   69  134 1    
   136   69  135 1    
   137   70   71 1    
   138   71  136 1    
   139   71  137 1    
@<TRIPOS>SUBSTRUCTURE
     1 UNK         1 GROUP             0       ****    0 ROOT    
