@<TRIPOS>MOLECULE
3R136
137   139    1
SMALL
USER_CHARGES


@<TRIPOS>ATOM
      1 CA         30.3097   21.0088   -4.6436 C.3       0 UNK        -0.1979 
      2 C          29.8321   22.1677   -3.7809 C.2       0 UNK         0.4864 
      3 O          29.1534   23.0649   -4.2829 O.2       0 UNK        -0.5359 
      4 N          30.1862   22.1604   -2.4890 N.am      1 UNK        -0.4318 
      5 CA         29.7658   23.1572   -1.5024 C.3       1 UNK         0.0824 
      6 C6         30.6698   23.1096   -0.2483 C.3       12 UNK        -0.0944 
      7 S7         30.4423   24.5359    0.8699 S.3       12 UNK        -0.2672 
      8 C8         30.0497   23.6836    2.4307 C.3       12 UNK         0.0333 
      9 C9         30.4119   24.5415    3.6324 C.ar      12 UNK        -0.0807 
     10 C10        31.7383   24.6046    4.0681 C.ar      12 UNK        -0.0894 
     11 C11        32.0848   25.3725    5.1828 C.ar      12 UNK        -0.0804 
     12 C12        31.0951   26.1086    5.8407 C.ar      12 UNK        -0.0824 
     13 C13        29.7638   26.0672    5.4115 C.ar      12 UNK        -0.0762 
     14 C14        29.4270   25.2523    4.3225 C.ar      12 UNK        -0.0782 
     15 C15        28.7221   26.8878    6.1748 C.3       12 UNK         0.0230 
     16 S16        27.2270   27.3464    5.2274 S.3       12 UNK        -0.2608 
     17 C17        27.9115   28.3959    3.8988 C.3       12 UNK        -0.0989 
     18 CA         27.6869   27.7832    2.4901 C.3       5 UNK         0.0716 
     19 N          26.2882   27.5206    2.1473 N.am      5 UNK        -0.4135 
     20 C          25.2667   28.3908    2.1236 C.2       4 UNK         0.5031 
     21 O          25.3708   29.5841    2.4092 O.2       4 UNK        -0.5229 
     22 CA         23.8811   27.8552    1.6978 C.3       4 UNK         0.0329 
     23 CB         23.4394   28.4991    0.3721 C.3       4 UNK        -0.2001 
     24 N          23.8293   26.3988    1.5473 N.am      4 UNK        -0.4303 
     25 C          23.8722   25.5054    2.5463 C.2       3 UNK         0.5044 
     26 O          23.8058   25.8085    3.7372 O.2       3 UNK        -0.5152 
     27 CA         24.0621   24.0257    2.1526 C.3       3 UNK         0.0319 
     28 CB         22.7439   23.2521    2.3182 C.3       3 UNK        -0.2001 
     29 N          24.5726   23.8178    0.7891 N.am      3 UNK        -0.4354 
     30 C          25.7579   24.2402    0.3255 C.2       2 UNK         0.4964 
     31 O          26.5715   24.8821    0.9958 O.2       2 UNK        -0.5047 
     32 CA         26.0219   23.9924   -1.1673 C.3       2 UNK         0.0288 
     33 CB         25.3630   25.0996   -2.0081 C.3       2 UNK        -0.2113 
     34 N          27.4525   23.9665   -1.4666 N.am      2 UNK        -0.4145 
     35 C          28.2757   22.9564   -1.1599 C.2       1 UNK         0.5006 
     36 O          27.9066   21.8967   -0.6461 O.2       1 UNK        -0.5103 
     37 C          28.3668   28.5698    1.3600 C.2       5 UNK         0.5055 
     38 O          28.6738   29.7528    1.5111 O.2       5 UNK        -0.5220 
     39 N          28.5778   27.8736    0.2340 N.am      6 UNK        -0.4450 
     40 CA         29.2455   28.3902   -0.9655 C.3       6 UNK         0.0367 
     41 CB         28.9339   27.4575   -2.1473 C.3       6 UNK        -0.1929 
     42 C          30.7697   28.5733   -0.8088 C.2       6 UNK         0.5070 
     43 O          31.3893   29.1830   -1.6818 O.2       6 UNK        -0.5237 
     44 N          31.3505   28.0354    0.2733 N.am      7 UNK        -0.4739 
     45 CA         32.7571   28.1841    0.6528 C.3       7 UNK         0.0276 
     46 CB         33.0246   27.3122    1.8896 C.3       7 UNK        -0.1927 
     47 C          33.1495   29.6458    0.9390 C.2       7 UNK         0.5013 
     48 O          32.2905   30.4577    1.2962 O.2       7 UNK        -0.5193 
     49 N          34.4512   29.9404    0.8036 N.am      8 UNK        -0.4253 
     50 CA         35.0641   31.2576    1.0099 C.3       8 UNK         0.0242 
     51 CB         36.5872   31.1444    0.8295 C.3       8 UNK        -0.2000 
     52 C          34.7194   31.8532    2.3849 C.2       8 UNK         0.4948 
     53 O          35.0926   31.2742    3.4079 O.2       8 UNK        -0.5275 
     54 N          33.9551   32.9561    2.3708 N.am      9 UNK        -0.4246 
     55 CA         33.3949   33.6645    3.5307 C.3       9 UNK         0.0261 
     56 CB         34.5169   34.3933    4.3014 C.3       9 UNK        -0.1959 
     57 C          32.5358   32.7713    4.4531 C.2       9 UNK         0.5033 
     58 O          32.4824   33.0240    5.6586 O.2       9 UNK        -0.5390 
     59 N          31.9250   31.7135    3.8906 N.am      10 UNK        -0.4215 
     60 CA         31.2039   30.6379    4.5857 C.3       10 UNK         0.0240 
     61 CB         29.8738   31.1649    5.1677 C.3       10 UNK        -0.1982 
     62 C          32.0673   29.9040    5.6359 C.2       10 UNK         0.4970 
     63 O          31.5284   29.4148    6.6297 O.2       10 UNK        -0.4916 
     64 N          33.3901   29.8743    5.4124 N.am      11 UNK        -0.4279 
     65 CA         34.4237   29.4054    6.3486 C.3       11 UNK         0.1003 
     66 C          34.5814   30.2859    7.6279 C.2       11 UNK         0.5709 
     67 N          34.0402   31.4985    7.6821 N.am      11 UNK        -0.7358 
     68 O          35.2390   29.8805    8.5839 O.2       11 UNK        -0.4999 
     69 C69        34.3296   27.8856    6.6681 C.3       12 UNK        -0.0954 
     70 S70        34.4466   26.8425    5.1766 S.3       12 UNK        -0.2268 
     71 C71        33.5190   25.3666    5.6944 C.3       12 UNK         0.0203 
     72 H72        30.9187   21.3804   -5.4672 H         1 UNK         0.0888 
     73 H73        30.9069   20.2959   -4.0753 H         1 UNK         0.0888 
     74 H74        29.4560   20.4773   -5.0632 H         1 UNK         0.0888 
     75 H75        30.7193   21.3827   -2.1266 H         1 UNK         0.3017 
     76 H76        29.8944   24.1390   -1.9621 H         1 UNK         0.0873 
     77 H77        31.7178   23.1176   -0.5527 H         1 UNK         0.0745 
     78 H78        30.5270   22.1703    0.2890 H         1 UNK         0.0745 
     79 H79        30.6004   22.7442    2.4962 H         1 UNK         0.0705 
     80 H80        28.9898   23.4231    2.4385 H         1 UNK         0.0705 
     81 H81        32.4991   24.0418    3.5444 H         1 UNK         0.1334 
     82 H82        31.3601   26.7099    6.6991 H         1 UNK         0.1417 
     83 H83        28.3978   25.1682    4.0037 H         1 UNK         0.1562 
     84 H84        29.1778   27.8049    6.5524 H         1 UNK         0.0748 
     85 H85        28.4111   26.3166    7.0502 H         1 UNK         0.0748 
     86 H86        28.9793   28.5319    4.0728 H         1 UNK         0.0940 
     87 H87        27.4660   29.3891    3.9729 H         1 UNK         0.0940 
     88 H88        28.1681   26.8066    2.4850 H         1 UNK         0.0703 
     89 H89        26.1082   26.5658    1.8535 H         1 UNK         0.3081 
     90 H90        23.1705   28.1436    2.4752 H         1 UNK         0.0719 
     91 H91        24.1173   28.2479   -0.4448 H         1 UNK         0.0809 
     92 H92        22.4365   28.1788    0.0889 H         1 UNK         0.0809 
     93 H93        23.4173   29.5868    0.4533 H         1 UNK         0.0809 
     94 H94        23.8629   26.0442    0.6033 H         1 UNK         0.2990 
     95 H95        24.7955   23.6047    2.8436 H         1 UNK         0.0690 
     96 H96        22.8829   22.1859    2.1376 H         1 UNK         0.0788 
     97 H97        21.9750   23.6130    1.6338 H         1 UNK         0.0788 
     98 H98        22.3532   23.3575    3.3315 H         1 UNK         0.0788 
     99 H99        23.9593   23.3204    0.1586 H         1 UNK         0.2993 
    100 H100       25.5922   23.0277   -1.4472 H         1 UNK         0.0949 
    101 H101       25.5481   24.9521   -3.0725 H         1 UNK         0.0767 
    102 H102       24.2808   25.1080   -1.8711 H         1 UNK         0.0767 
    103 H103       25.7331   26.0896   -1.7378 H         1 UNK         0.0767 
    104 H104       27.8344   24.7894   -1.9056 H         1 UNK         0.3013 
    105 H105       28.2877   26.9055    0.2095 H         1 UNK         0.3121 
    106 H106       28.8264   29.3740   -1.1875 H         1 UNK         0.0774 
    107 H107       29.3600   27.8470   -3.0731 H         1 UNK         0.0815 
    108 H108       29.3531   26.4640   -1.9927 H         1 UNK         0.0815 
    109 H109       27.8603   27.3584   -2.3065 H         1 UNK         0.0815 
    110 H110       30.7617   27.5400    0.9249 H         1 UNK         0.2987 
    111 H111       33.3648   27.8197   -0.1781 H         1 UNK         0.0949 
    112 H112       34.0688   27.3770    2.1974 H         1 UNK         0.0806 
    113 H113       32.4154   27.6175    2.7419 H         1 UNK         0.0806 
    114 H114       32.8171   26.2612    1.6901 H         1 UNK         0.0806 
    115 H115       35.0833   29.1978    0.5425 H         1 UNK         0.3010 
    116 H116       34.6800   31.9191    0.2306 H         1 UNK         0.0829 
    117 H117       36.8461   30.7970   -0.1708 H         1 UNK         0.0813 
    118 H118       37.0693   32.1130    0.9694 H         1 UNK         0.0813 
    119 H119       37.0288   30.4549    1.5505 H         1 UNK         0.0813 
    120 H120       33.6733   33.3203    1.4704 H         1 UNK         0.3038 
    121 H121       32.7187   34.4222    3.1322 H         1 UNK         0.0769 
    122 H122       34.1058   35.0340    5.0826 H         1 UNK         0.0811 
    123 H123       35.1048   35.0298    3.6403 H         1 UNK         0.0811 
    124 H124       35.1973   33.6898    4.7828 H         1 UNK         0.0811 
    125 H125       32.0594   31.5520    2.8940 H         1 UNK         0.3204 
    126 H126       30.9647   29.8947    3.8237 H         1 UNK         0.0748 
    127 H127       29.2968   30.3649    5.6321 H         1 UNK         0.0771 
    128 H128       30.0387   31.9243    5.9324 H         1 UNK         0.0771 
    129 H129       29.2493   31.6016    4.3883 H         1 UNK         0.0771 
    130 H130       33.7585   30.3366    4.5874 H         1 UNK         0.2980 
    131 H131       35.3625   29.5555    5.8146 H         1 UNK         0.0545 
    132 H132       34.1670   32.0513    8.5142 H         1 UNK         0.3459 
    133 H133       33.4977   31.8731    6.9103 H         1 UNK         0.3459 
    134 H134       35.1440   27.5812    7.3274 H         1 UNK         0.0616 
    135 H135       33.4091   27.6650    7.2078 H         1 UNK         0.0616 
    136 H136       33.5285   25.2760    6.7816 H         1 UNK         0.0634 
    137 H137       34.0441   24.4869    5.3193 H         1 UNK         0.0634 
@<TRIPOS>BOND
     1    1    2 1    
     2    1   72 1    
     3    1   73 1    
     4    1   74 1    
     5    2    3 2    
     6    2    4 am   BACKBONE|DICT|INTERRES
     7    4    5 1    
     8    4   75 1    
     9    5    6 1    
    10    5   35 1    
    11    5   76 1    
    12    6    7 1    
    13    6   77 1    
    14    6   78 1    
    15    7    8 1    
    16    8    9 1    
    17    8   79 1    
    18    8   80 1    
    19    9   10 ar   
    20    9   14 ar   
    21   10   11 ar   
    22   10   81 1    
    23   11   12 ar   
    24   11   71 1    
    25   12   13 ar   
    26   12   82 1    
    27   13   14 ar   
    28   13   15 1    
    29   14   83 1    
    30   15   16 1    
    31   15   84 1    
    32   15   85 1    
    33   16   17 1    
    34   17   18 1    
    35   17   86 1    
    36   17   87 1    
    37   18   19 1    
    38   18   37 1    
    39   18   88 1    
    40   19   20 am   BACKBONE|DICT|INTERRES
    41   19   89 1    
    42   20   21 2    
    43   20   22 1    
    44   22   23 1    
    45   22   24 1    
    46   22   90 1    
    47   23   91 1    
    48   23   92 1    
    49   23   93 1    
    50   24   25 am   BACKBONE|DICT|INTERRES
    51   24   94 1    
    52   25   26 2    
    53   25   27 1    
    54   27   28 1    
    55   27   29 1    
    56   27   95 1    
    57   28   96 1    
    58   28   97 1    
    59   28   98 1    
    60   29   30 am   BACKBONE|DICT|INTERRES
    61   29   99 1    
    62   30   31 2    
    63   30   32 1    
    64   32   33 1    
    65   32   34 1    
    66   32  100 1    
    67   33  101 1    
    68   33  102 1    
    69   33  103 1    
    70   34   35 am   BACKBONE|DICT|INTERRES
    71   34  104 1    
    72   35   36 2    
    73   37   38 2    
    74   37   39 am   BACKBONE|DICT|INTERRES
    75   39   40 1    
    76   39  105 1    
    77   40   41 1    
    78   40   42 1    
    79   40  106 1    
    80   41  107 1    
    81   41  108 1    
    82   41  109 1    
    83   42   43 2    
    84   42   44 am   BACKBONE|DICT|INTERRES
    85   44   45 1    
    86   44  110 1    
    87   45   46 1    
    88   45   47 1    
    89   45  111 1    
    90   46  112 1    
    91   46  113 1    
    92   46  114 1    
    93   47   48 2    
    94   47   49 am   BACKBONE|DICT|INTERRES
    95   49   50 1    
    96   49  115 1    
    97   50   51 1    
    98   50   52 1    
    99   50  116 1    
   100   51  117 1    
   101   51  118 1    
   102   51  119 1    
   103   52   53 2    
   104   52   54 am   BACKBONE|DICT|INTERRES
   105   54   55 1    
   106   54  120 1    
   107   55   56 1    
   108   55   57 1    
   109   55  121 1    
   110   56  122 1    
   111   56  123 1    
   112   56  124 1    
   113   57   58 2    
   114   57   59 am   BACKBONE|DICT|INTERRES
   115   59   60 1    
   116   59  125 1    
   117   60   61 1    
   118   60   62 1    
   119   60  126 1    
   120   61  127 1    
   121   61  128 1    
   122   61  129 1    
   123   62   63 2    
   124   62   64 am   BACKBONE|DICT|INTERRES
   125   64   65 1    
   126   64  130 1    
   127   65   66 1    
   128   65   69 1    
   129   65  131 1    
   130   66   67 am   BACKBONE|DICT|INTERRES
   131   66   68 2    
   132   67  132 1    
   133   67  133 1    
   134   69   70 1    
   135   69  134 1    
   136   69  135 1    
   137   70   71 1    
   138   71  136 1    
   139   71  137 1    
@<TRIPOS>SUBSTRUCTURE
     1 UNK         1 GROUP             0       ****    0 ROOT    
