@<TRIPOS>MOLECULE
3R136
137   139    1
SMALL
USER_CHARGES


@<TRIPOS>ATOM
      1 CA         30.3323   17.4685   -1.5322 C.3       0 UNK        -0.1979 
      2 C          30.0515   18.9119   -1.9238 C.2       0 UNK         0.4864 
      3 O          30.1389   19.2530   -3.1047 O.2       0 UNK        -0.5359 
      4 N          29.7231   19.7627   -0.9427 N.am      1 UNK        -0.4318 
      5 CA         29.3555   21.1666   -1.1444 C.3       1 UNK         0.0824 
      6 C6         29.4194   21.9541    0.1895 C.3       12 UNK        -0.0944 
      7 S7         29.4335   23.7617   -0.0725 S.3       12 UNK        -0.2672 
      8 C8         30.7591   24.3051    1.0600 C.3       12 UNK         0.0333 
      9 C9         30.3834   24.4012    2.5417 C.ar      12 UNK        -0.0807 
     10 C10        31.3224   24.9531    3.4188 C.ar      12 UNK        -0.0894 
     11 C11        31.0280   25.1211    4.7745 C.ar      12 UNK        -0.0804 
     12 C12        29.7830   24.7214    5.2650 C.ar      12 UNK        -0.0824 
     13 C13        28.8301   24.1705    4.4043 C.ar      12 UNK        -0.0762 
     14 C14        29.1399   23.9994    3.0510 C.ar      12 UNK        -0.0782 
     15 C15        27.4454   23.8104    4.9235 C.3       12 UNK         0.0230 
     16 S16        26.1448   24.8276    4.1490 S.3       12 UNK        -0.2608 
     17 C17        26.5628   26.5167    4.7172 C.3       12 UNK        -0.0989 
     18 CA         27.5430   27.2646    3.7742 C.3       5 UNK         0.0716 
     19 N          27.1378   27.2022    2.3723 N.am      5 UNK        -0.4135 
     20 C          27.9192   27.4984    1.3282 C.2       4 UNK         0.5031 
     21 O          29.0608   27.9499    1.4426 O.2       4 UNK        -0.5229 
     22 CA         27.3321   27.2129   -0.0699 C.3       4 UNK         0.0329 
     23 CB         28.3797   27.3470   -1.1911 C.3       4 UNK        -0.2001 
     24 N          26.7289   25.8773   -0.1466 N.am      4 UNK        -0.4303 
     25 C          25.4996   25.5519    0.2770 C.2       3 UNK         0.5044 
     26 O          24.7351   26.3671    0.7962 O.2       3 UNK        -0.5152 
     27 CA         25.0721   24.0740    0.1487 C.3       3 UNK         0.0319 
     28 CB         23.5394   23.9042    0.0859 C.3       3 UNK        -0.2001 
     29 N          25.7198   23.3480   -0.9527 N.am      3 UNK        -0.4354 
     30 C          25.6591   23.6164   -2.2670 C.2       2 UNK         0.4964 
     31 O          25.0166   24.5542   -2.7416 O.2       2 UNK        -0.5047 
     32 CA         26.4710   22.6932   -3.2037 C.3       2 UNK         0.0288 
     33 CB         26.7279   23.3335   -4.5814 C.3       2 UNK        -0.2113 
     34 N          27.7592   22.3072   -2.6176 N.am      2 UNK        -0.4145 
     35 C          27.9544   21.2787   -1.7821 C.2       1 UNK         0.5006 
     36 O          27.0615   20.4964   -1.4458 O.2       1 UNK        -0.5103 
     37 C          27.7512   28.7262    4.2056 C.2       5 UNK         0.5055 
     38 O          26.8047   29.5144    4.1497 O.2       5 UNK        -0.5220 
     39 N          28.9901   29.0526    4.6006 N.am      6 UNK        -0.4450 
     40 CA         29.4827   30.3781    4.9966 C.3       6 UNK         0.0367 
     41 CB         28.7883   30.8668    6.2851 C.3       6 UNK        -0.1929 
     42 C          29.4517   31.4322    3.8709 C.2       6 UNK         0.5070 
     43 O          29.5218   32.6272    4.1676 O.2       6 UNK        -0.5237 
     44 N          29.3876   30.9952    2.6024 N.am      7 UNK        -0.4739 
     45 CA         29.4235   31.8599    1.4187 C.3       7 UNK         0.0276 
     46 CB         29.2391   31.0109    0.1519 C.3       7 UNK        -0.1927 
     47 C          30.7380   32.6527    1.3616 C.2       7 UNK         0.5013 
     48 O          31.8088   32.0426    1.3626 O.2       7 UNK        -0.5193 
     49 N          30.6315   33.9893    1.4027 N.am      8 UNK        -0.4253 
     50 CA         31.7352   34.9583    1.4985 C.3       8 UNK         0.0242 
     51 CB         32.5253   34.9999    0.1727 C.3       8 UNK        -0.2000 
     52 C          32.6579   34.7454    2.7218 C.2       8 UNK         0.4948 
     53 O          33.8163   35.1634    2.6842 O.2       8 UNK        -0.5275 
     54 N          32.1396   34.0809    3.7693 N.am      9 UNK        -0.4246 
     55 CA         32.8450   33.6182    4.9701 C.3       9 UNK         0.0261 
     56 CB         33.3063   34.8110    5.8347 C.3       9 UNK        -0.1959 
     57 C          33.9840   32.6159    4.6781 C.2       9 UNK         0.5033 
     58 O          34.9243   32.5244    5.4709 O.2       9 UNK        -0.5390 
     59 N          33.8792   31.8544    3.5742 N.am      10 UNK        -0.4215 
     60 CA         34.8860   30.8855    3.1135 C.3       10 UNK         0.0240 
     61 CB         34.4567   30.3089    1.7549 C.3       10 UNK        -0.1982 
     62 C          35.1994   29.7437    4.0995 C.2       10 UNK         0.4970 
     63 O          36.2736   29.1487    4.0017 O.2       10 UNK        -0.4916 
     64 N          34.2779   29.4678    5.0304 N.am      11 UNK        -0.4279 
     65 CA         34.4609   28.5231    6.1424 C.3       11 UNK         0.1003 
     66 C          35.4852   28.9924    7.2186 C.2       11 UNK         0.5709 
     67 N          35.8868   30.2592    7.2560 N.am      11 UNK        -0.7358 
     68 O          35.9269   28.1862    8.0339 O.2       11 UNK        -0.4999 
     69 C69        33.1119   28.1424    6.8084 C.3       12 UNK        -0.0954 
     70 S70        31.8509   27.5860    5.6170 S.3       12 UNK        -0.2268 
     71 C71        32.0371   25.7826    5.6969 C.3       12 UNK         0.0203 
     72 H72        31.3457   17.1914   -1.8215 H         1 UNK         0.0888 
     73 H73        30.2311   17.3100   -0.4586 H         1 UNK         0.0888 
     74 H74        29.6375   16.8003   -2.0402 H         1 UNK         0.0888 
     75 H75        29.6355   19.4170    0.0022 H         1 UNK         0.3017 
     76 H76        30.0862   21.5949   -1.8348 H         1 UNK         0.0873 
     77 H77        28.5882   21.6909    0.8469 H         1 UNK         0.0745 
     78 H78        30.3247   21.6793    0.7332 H         1 UNK         0.0745 
     79 H79        31.6253   23.6521    0.9453 H         1 UNK         0.0705 
     80 H80        31.0776   25.2949    0.7288 H         1 UNK         0.0705 
     81 H81        32.2805   25.2821    3.0393 H         1 UNK         0.1334 
     82 H82        29.5458   24.8710    6.3097 H         1 UNK         0.1417 
     83 H83        28.3822   23.5884    2.4010 H         1 UNK         0.1562 
     84 H84        27.3889   23.9196    6.0077 H         1 UNK         0.0748 
     85 H85        27.2470   22.7594    4.7093 H         1 UNK         0.0748 
     86 H86        26.9730   26.4630    5.7274 H         1 UNK         0.0940 
     87 H87        25.6250   27.0694    4.8033 H         1 UNK         0.0940 
     88 H88        28.5103   26.7664    3.8348 H         1 UNK         0.0703 
     89 H89        26.1985   26.8706    2.1870 H         1 UNK         0.3081 
     90 H90        26.5575   27.9613   -0.2500 H         1 UNK         0.0719 
     91 H91        29.2148   26.6607   -1.0474 H         1 UNK         0.0809 
     92 H92        27.9429   27.1455   -2.1693 H         1 UNK         0.0809 
     93 H93        28.7918   28.3558   -1.2245 H         1 UNK         0.0809 
     94 H94        27.3226   25.1394   -0.4990 H         1 UNK         0.2990 
     95 H95        25.4152   23.5916    1.0653 H         1 UNK         0.0690 
     96 H96        23.2586   22.8530    0.0229 H         1 UNK         0.0788 
     97 H97        23.1106   24.4190   -0.7745 H         1 UNK         0.0788 
     98 H98        23.0625   24.3110    0.9787 H         1 UNK         0.0788 
     99 H99        26.2573   22.5358   -0.6795 H         1 UNK         0.2993 
    100 H100       25.8670   21.7969   -3.3621 H         1 UNK         0.0949 
    101 H101       27.2877   22.6617   -5.2326 H         1 UNK         0.0767 
    102 H102       25.7903   23.5635   -5.0895 H         1 UNK         0.0767 
    103 H103       27.2904   24.2642   -4.4950 H         1 UNK         0.0767 
    104 H104       28.5333   22.9314   -2.7973 H         1 UNK         0.3013 
    105 H105       29.6968   28.3272    4.5877 H         1 UNK         0.3121 
    106 H106       30.5387   30.2461    5.2332 H         1 UNK         0.0774 
    107 H107       27.7366   31.0989    6.1161 H         1 UNK         0.0815 
    108 H108       29.2616   31.7724    6.6666 H         1 UNK         0.0815 
    109 H109       28.8456   30.1177    7.0748 H         1 UNK         0.0815 
    110 H110       29.3649   29.9969    2.4309 H         1 UNK         0.2987 
    111 H111       28.5854   32.5566    1.4890 H         1 UNK         0.0949 
    112 H112       30.0246   30.2600    0.0538 H         1 UNK         0.0806 
    113 H113       28.2794   30.4943    0.1584 H         1 UNK         0.0806 
    114 H114       29.2671   31.6323   -0.7441 H         1 UNK         0.0806 
    115 H115       29.7036   34.3892    1.4418 H         1 UNK         0.3010 
    116 H116       31.2729   35.9364    1.6402 H         1 UNK         0.0829 
    117 H117       33.0712   34.0717   -0.0007 H         1 UNK         0.0813 
    118 H118       31.8648   35.1645   -0.6786 H         1 UNK         0.0813 
    119 H119       33.2551   35.8104    0.1742 H         1 UNK         0.0813 
    120 H120       31.1722   33.7764    3.7048 H         1 UNK         0.3038 
    121 H121       32.1066   33.0631    5.5506 H         1 UNK         0.0769 
    122 H122       33.6890   34.4719    6.7981 H         1 UNK         0.0811 
    123 H123       34.1029   35.3775    5.3517 H         1 UNK         0.0811 
    124 H124       32.4830   35.4954    6.0387 H         1 UNK         0.0811 
    125 H125       33.0892   31.9998    2.9512 H         1 UNK         0.3204 
    126 H126       35.8163   31.4379    2.9673 H         1 UNK         0.0748 
    127 H127       35.1899   29.5934    1.3799 H         1 UNK         0.0771 
    128 H128       33.4985   29.7915    1.8220 H         1 UNK         0.0771 
    129 H129       34.3617   31.0938    1.0041 H         1 UNK         0.0771 
    130 H130       33.4201   29.9957    5.0322 H         1 UNK         0.2980 
    131 H131       34.8768   27.6092    5.7140 H         1 UNK         0.0545 
    132 H132       36.5520   30.5418    7.9576 H         1 UNK         0.3459 
    133 H133       35.5344   30.9421    6.5936 H         1 UNK         0.3459 
    134 H134       33.2584   27.3633    7.5588 H         1 UNK         0.0616 
    135 H135       32.7002   29.0014    7.3415 H         1 UNK         0.0616 
    136 H136       31.8955   25.4429    6.7241 H         1 UNK         0.0634 
    137 H137       33.0527   25.5064    5.4094 H         1 UNK         0.0634 
@<TRIPOS>BOND
     1    1    2 1    
     2    1   72 1    
     3    1   73 1    
     4    1   74 1    
     5    2    3 2    
     6    2    4 am   BACKBONE|DICT|INTERRES
     7    4    5 1    
     8    4   75 1    
     9    5    6 1    
    10    5   35 1    
    11    5   76 1    
    12    6    7 1    
    13    6   77 1    
    14    6   78 1    
    15    7    8 1    
    16    8    9 1    
    17    8   79 1    
    18    8   80 1    
    19    9   10 ar   
    20    9   14 ar   
    21   10   11 ar   
    22   10   81 1    
    23   11   12 ar   
    24   11   71 1    
    25   12   13 ar   
    26   12   82 1    
    27   13   14 ar   
    28   13   15 1    
    29   14   83 1    
    30   15   16 1    
    31   15   84 1    
    32   15   85 1    
    33   16   17 1    
    34   17   18 1    
    35   17   86 1    
    36   17   87 1    
    37   18   19 1    
    38   18   37 1    
    39   18   88 1    
    40   19   20 am   BACKBONE|DICT|INTERRES
    41   19   89 1    
    42   20   21 2    
    43   20   22 1    
    44   22   23 1    
    45   22   24 1    
    46   22   90 1    
    47   23   91 1    
    48   23   92 1    
    49   23   93 1    
    50   24   25 am   BACKBONE|DICT|INTERRES
    51   24   94 1    
    52   25   26 2    
    53   25   27 1    
    54   27   28 1    
    55   27   29 1    
    56   27   95 1    
    57   28   96 1    
    58   28   97 1    
    59   28   98 1    
    60   29   30 am   BACKBONE|DICT|INTERRES
    61   29   99 1    
    62   30   31 2    
    63   30   32 1    
    64   32   33 1    
    65   32   34 1    
    66   32  100 1    
    67   33  101 1    
    68   33  102 1    
    69   33  103 1    
    70   34   35 am   BACKBONE|DICT|INTERRES
    71   34  104 1    
    72   35   36 2    
    73   37   38 2    
    74   37   39 am   BACKBONE|DICT|INTERRES
    75   39   40 1    
    76   39  105 1    
    77   40   41 1    
    78   40   42 1    
    79   40  106 1    
    80   41  107 1    
    81   41  108 1    
    82   41  109 1    
    83   42   43 2    
    84   42   44 am   BACKBONE|DICT|INTERRES
    85   44   45 1    
    86   44  110 1    
    87   45   46 1    
    88   45   47 1    
    89   45  111 1    
    90   46  112 1    
    91   46  113 1    
    92   46  114 1    
    93   47   48 2    
    94   47   49 am   BACKBONE|DICT|INTERRES
    95   49   50 1    
    96   49  115 1    
    97   50   51 1    
    98   50   52 1    
    99   50  116 1    
   100   51  117 1    
   101   51  118 1    
   102   51  119 1    
   103   52   53 2    
   104   52   54 am   BACKBONE|DICT|INTERRES
   105   54   55 1    
   106   54  120 1    
   107   55   56 1    
   108   55   57 1    
   109   55  121 1    
   110   56  122 1    
   111   56  123 1    
   112   56  124 1    
   113   57   58 2    
   114   57   59 am   BACKBONE|DICT|INTERRES
   115   59   60 1    
   116   59  125 1    
   117   60   61 1    
   118   60   62 1    
   119   60  126 1    
   120   61  127 1    
   121   61  128 1    
   122   61  129 1    
   123   62   63 2    
   124   62   64 am   BACKBONE|DICT|INTERRES
   125   64   65 1    
   126   64  130 1    
   127   65   66 1    
   128   65   69 1    
   129   65  131 1    
   130   66   67 am   BACKBONE|DICT|INTERRES
   131   66   68 2    
   132   67  132 1    
   133   67  133 1    
   134   69   70 1    
   135   69  134 1    
   136   69  135 1    
   137   70   71 1    
   138   71  136 1    
   139   71  137 1    
@<TRIPOS>SUBSTRUCTURE
     1 UNK         1 GROUP             0       ****    0 ROOT    
