@<TRIPOS>MOLECULE
3R136
137   139    1
SMALL
USER_CHARGES


@<TRIPOS>ATOM
      1 CA         26.9992   17.7757    1.5153 C.3       0 UNK        -0.1979 
      2 C          26.9298   19.1750    0.9211 C.2       0 UNK         0.4864 
      3 O          26.0045   19.4724    0.1634 O.2       0 UNK        -0.5359 
      4 N          27.9055   20.0302    1.2507 N.am      1 UNK        -0.4318 
      5 CA         27.9657   21.4362    0.8401 C.3       1 UNK         0.0824 
      6 C6         29.4137   21.9879    0.8858 C.3       12 UNK        -0.0944 
      7 S7         30.2478   21.7988    2.5004 S.3       12 UNK        -0.2672 
      8 C8         31.9960   21.8155    1.9943 C.3       12 UNK         0.0333 
      9 C9         32.4410   23.2039    1.5571 C.ar      12 UNK        -0.0807 
     10 C10        32.9718   24.0965    2.4920 C.ar      12 UNK        -0.0894 
     11 C11        33.4060   25.3645    2.0958 C.ar      12 UNK        -0.0804 
     12 C12        33.2838   25.7445    0.7557 C.ar      12 UNK        -0.0824 
     13 C13        32.7329   24.8717   -0.1892 C.ar      12 UNK        -0.0762 
     14 C14        32.3356   23.5922    0.2181 C.ar      12 UNK        -0.0782 
     15 C15        32.6213   25.3243   -1.6450 C.3       12 UNK         0.0230 
     16 S16        31.2008   24.6337   -2.5679 S.3       12 UNK        -0.2608 
     17 C17        29.7640   25.3327   -1.6880 C.3       12 UNK        -0.0989 
     18 CA         29.2765   26.6688   -2.3124 C.3       5 UNK         0.0716 
     19 N          27.8331   26.8628   -2.1638 N.am      5 UNK        -0.4135 
     20 C          27.0809   27.6277   -2.9706 C.2       4 UNK         0.5031 
     21 O          27.4915   28.1266   -4.0193 O.2       4 UNK        -0.5229 
     22 CA         25.6237   27.8985   -2.5440 C.3       4 UNK         0.0329 
     23 CB         24.6723   26.8970   -3.2184 C.3       4 UNK        -0.2001 
     24 N          25.4167   27.8558   -1.0946 N.am      4 UNK        -0.4303 
     25 C          25.9625   28.7018   -0.2085 C.2       3 UNK         0.5044 
     26 O          26.6164   29.6957   -0.5242 O.2       3 UNK        -0.5152 
     27 CA         25.7794   28.3678    1.2857 C.3       3 UNK         0.0319 
     28 CB         24.6465   29.2146    1.8873 C.3       3 UNK        -0.2001 
     29 N          25.5388   26.9501    1.5944 N.am      3 UNK        -0.4354 
     30 C          26.2957   25.9090    1.2146 C.2       2 UNK         0.4964 
     31 O          27.2908   26.0060    0.4883 O.2       2 UNK        -0.5047 
     32 CA         25.8257   24.5234    1.6800 C.3       2 UNK         0.0288 
     33 CB         24.3752   24.2286    1.2449 C.3       2 UNK        -0.2113 
     34 N          26.7158   23.5144    1.1150 N.am      2 UNK        -0.4145 
     35 C          26.9772   22.3135    1.6399 C.2       1 UNK         0.5006 
     36 O          26.4841   21.9056    2.6962 O.2       1 UNK        -0.5103 
     37 C          29.9969   27.8890   -1.7129 C.2       5 UNK         0.5055 
     38 O          30.6822   28.6138   -2.4359 O.2       5 UNK        -0.5220 
     39 N          29.7852   28.1097   -0.4104 N.am      6 UNK        -0.4450 
     40 CA         30.2535   29.2532    0.3633 C.3       6 UNK         0.0367 
     41 CB         31.7800   29.2031    0.5606 C.3       6 UNK        -0.1929 
     42 C          29.5396   29.2121    1.7169 C.2       6 UNK         0.5070 
     43 O          29.2410   28.1234    2.2135 O.2       6 UNK        -0.5237 
     44 N          29.2786   30.3907    2.2910 N.am      7 UNK        -0.4739 
     45 CA         28.7140   30.5390    3.6337 C.3       7 UNK         0.0276 
     46 CB         28.1413   31.9590    3.7739 C.3       7 UNK        -0.1927 
     47 C          29.7811   30.2860    4.7100 C.2       7 UNK         0.5013 
     48 O          30.9712   30.4658    4.4430 O.2       7 UNK        -0.5193 
     49 N          29.3412   29.9526    5.9315 N.am      8 UNK        -0.4253 
     50 CA         30.2052   29.6951    7.0932 C.3       8 UNK         0.0242 
     51 CB         29.3379   29.3340    8.3095 C.3       8 UNK        -0.2000 
     52 C          31.1627   30.8519    7.4394 C.2       8 UNK         0.4948 
     53 O          32.2946   30.5982    7.8510 O.2       8 UNK        -0.5275 
     54 N          30.7114   32.0942    7.2152 N.am      9 UNK        -0.4246 
     55 CA         31.5089   33.3142    7.3609 C.3       9 UNK         0.0261 
     56 CB         30.5751   34.5346    7.3057 C.3       9 UNK        -0.1959 
     57 C          32.6338   33.4521    6.3159 C.2       9 UNK         0.5033 
     58 O          33.6254   34.1259    6.5993 O.2       9 UNK        -0.5390 
     59 N          32.4698   32.8292    5.1397 N.am      10 UNK        -0.4215 
     60 CA         33.4816   32.7753    4.0840 C.3       10 UNK         0.0240 
     61 CB         32.7990   32.7408    2.7066 C.3       10 UNK        -0.1982 
     62 C          34.4152   31.5700    4.2743 C.2       10 UNK         0.4970 
     63 O          35.6189   31.7109    4.0542 O.2       10 UNK        -0.4916 
     64 N          33.8603   30.4231    4.6947 N.am      11 UNK        -0.4279 
     65 CA         34.6231   29.2246    5.0790 C.3       11 UNK         0.1003 
     66 C          35.5516   29.4525    6.3047 C.2       11 UNK         0.5709 
     67 N          35.0924   30.1276    7.3513 N.am      11 UNK        -0.7358 
     68 O          36.6992   29.0134    6.3025 O.2       11 UNK        -0.4999 
     69 C69        33.7114   27.9952    5.3234 C.3       12 UNK        -0.0954 
     70 S70        32.8141   27.4419    3.8367 S.3       12 UNK        -0.2268 
     71 C71        34.0366   26.3036    3.1137 C.3       12 UNK         0.0203 
     72 H72        27.8745   17.6464    2.1518 H         1 UNK         0.0888 
     73 H73        27.0453   17.0319    0.7203 H         1 UNK         0.0888 
     74 H74        26.1114   17.5792    2.1160 H         1 UNK         0.0888 
     75 H75        28.6209   19.7474    1.9056 H         1 UNK         0.3017 
     76 H76        27.6403   21.4825   -0.2020 H         1 UNK         0.0873 
     77 H77        29.4426   23.0413    0.6012 H         1 UNK         0.0745 
     78 H78        30.0041   21.4662    0.1312 H         1 UNK         0.0745 
     79 H79        32.6061   21.4796    2.8341 H         1 UNK         0.0705 
     80 H80        32.1585   21.0905    1.1953 H         1 UNK         0.0705 
     81 H81        33.0584   23.7988    3.5283 H         1 UNK         0.1334 
     82 H82        33.6286   26.7216    0.4471 H         1 UNK         0.1417 
     83 H83        31.9369   22.8956   -0.5058 H         1 UNK         0.1562 
     84 H84        33.5371   25.0346   -2.1615 H         1 UNK         0.0748 
     85 H85        32.5731   26.4127   -1.6996 H         1 UNK         0.0748 
     86 H86        29.9703   25.4123   -0.6187 H         1 UNK         0.0940 
     87 H87        28.9741   24.5843   -1.7689 H         1 UNK         0.0940 
     88 H88        29.4965   26.6445   -3.3823 H         1 UNK         0.0703 
     89 H89        27.4322   26.5303   -1.2909 H         1 UNK         0.3081 
     90 H90        25.3643   28.9024   -2.8867 H         1 UNK         0.0719 
     91 H91        24.8678   25.8732   -2.8968 H         1 UNK         0.0809 
     92 H92        23.6300   27.1271   -2.9962 H         1 UNK         0.0809 
     93 H93        24.7833   26.9240   -4.3034 H         1 UNK         0.0809 
     94 H94        24.8811   27.0794   -0.7356 H         1 UNK         0.2990 
     95 H95        26.7032   28.6481    1.7893 H         1 UNK         0.0690 
     96 H96        24.5816   29.0832    2.9676 H         1 UNK         0.0788 
     97 H97        23.6779   28.9575    1.4566 H         1 UNK         0.0788 
     98 H98        24.8134   30.2773    1.7040 H         1 UNK         0.0788 
     99 H99        24.7349   26.7607    2.1757 H         1 UNK         0.2993 
    100 H100       25.8975   24.4994    2.7696 H         1 UNK         0.0949 
    101 H101       23.6680   24.9236    1.6985 H         1 UNK         0.0767 
    102 H102       24.2580   24.2978    0.1626 H         1 UNK         0.0767 
    103 H103       24.0683   23.2268    1.5467 H         1 UNK         0.0767 
    104 H104       27.2223   23.8293    0.2980 H         1 UNK         0.3013 
    105 H105       29.1990   27.4748    0.1236 H         1 UNK         0.3121 
    106 H106       29.9750   30.1677   -0.1646 H         1 UNK         0.0774 
    107 H107       32.3182   29.2233   -0.3866 H         1 UNK         0.0815 
    108 H108       32.0728   28.3028    1.0978 H         1 UNK         0.0815 
    109 H109       32.1280   30.0527    1.1469 H         1 UNK         0.0815 
    110 H110       29.5851   31.2372    1.8342 H         1 UNK         0.2987 
    111 H111       27.9068   29.8142    3.7622 H         1 UNK         0.0949 
    112 H112       28.9158   32.7204    3.6704 H         1 UNK         0.0806 
    113 H113       27.3782   32.1532    3.0198 H         1 UNK         0.0806 
    114 H114       27.6716   32.1015    4.7480 H         1 UNK         0.0806 
    115 H115       28.3478   29.8424    6.0770 H         1 UNK         0.3010 
    116 H116       30.8211   28.8282    6.8477 H         1 UNK         0.0829 
    117 H117       28.7334   28.4472    8.1178 H         1 UNK         0.0813 
    118 H118       29.9587   29.1170    9.1801 H         1 UNK         0.0813 
    119 H119       28.6652   30.1477    8.5838 H         1 UNK         0.0813 
    120 H120       29.7639   32.2051    6.8850 H         1 UNK         0.3038 
    121 H121       31.9812   33.2892    8.3454 H         1 UNK         0.0769 
    122 H122       30.0587   34.6063    6.3475 H         1 UNK         0.0811 
    123 H123       31.1356   35.4606    7.4432 H         1 UNK         0.0811 
    124 H124       29.8218   34.4953    8.0928 H         1 UNK         0.0811 
    125 H125       31.6632   32.2278    5.0093 H         1 UNK         0.3204 
    126 H126       34.0951   33.6782    4.1240 H         1 UNK         0.0748 
    127 H127       32.2026   33.6379    2.5401 H         1 UNK         0.0771 
    128 H128       33.5380   32.6890    1.9058 H         1 UNK         0.0771 
    129 H129       32.1409   31.8799    2.5996 H         1 UNK         0.0771 
    130 H130       32.8497   30.3629    4.7761 H         1 UNK         0.2980 
    131 H131       35.2759   28.9844    4.2376 H         1 UNK         0.0545 
    132 H132       35.6968   30.2782    8.1426 H         1 UNK         0.3459 
    133 H133       34.1183   30.4151    7.3999 H         1 UNK         0.3459 
    134 H134       34.2888   27.1531    5.7096 H         1 UNK         0.0616 
    135 H135       32.9753   28.2249    6.0946 H         1 UNK         0.0616 
    136 H136       34.5085   25.7172    3.9039 H         1 UNK         0.0634 
    137 H137       34.8333   26.8852    2.6467 H         1 UNK         0.0634 
@<TRIPOS>BOND
     1    1    2 1    
     2    1   72 1    
     3    1   73 1    
     4    1   74 1    
     5    2    3 2    
     6    2    4 am   BACKBONE|DICT|INTERRES
     7    4    5 1    
     8    4   75 1    
     9    5    6 1    
    10    5   35 1    
    11    5   76 1    
    12    6    7 1    
    13    6   77 1    
    14    6   78 1    
    15    7    8 1    
    16    8    9 1    
    17    8   79 1    
    18    8   80 1    
    19    9   10 ar   
    20    9   14 ar   
    21   10   11 ar   
    22   10   81 1    
    23   11   12 ar   
    24   11   71 1    
    25   12   13 ar   
    26   12   82 1    
    27   13   14 ar   
    28   13   15 1    
    29   14   83 1    
    30   15   16 1    
    31   15   84 1    
    32   15   85 1    
    33   16   17 1    
    34   17   18 1    
    35   17   86 1    
    36   17   87 1    
    37   18   19 1    
    38   18   37 1    
    39   18   88 1    
    40   19   20 am   BACKBONE|DICT|INTERRES
    41   19   89 1    
    42   20   21 2    
    43   20   22 1    
    44   22   23 1    
    45   22   24 1    
    46   22   90 1    
    47   23   91 1    
    48   23   92 1    
    49   23   93 1    
    50   24   25 am   BACKBONE|DICT|INTERRES
    51   24   94 1    
    52   25   26 2    
    53   25   27 1    
    54   27   28 1    
    55   27   29 1    
    56   27   95 1    
    57   28   96 1    
    58   28   97 1    
    59   28   98 1    
    60   29   30 am   BACKBONE|DICT|INTERRES
    61   29   99 1    
    62   30   31 2    
    63   30   32 1    
    64   32   33 1    
    65   32   34 1    
    66   32  100 1    
    67   33  101 1    
    68   33  102 1    
    69   33  103 1    
    70   34   35 am   BACKBONE|DICT|INTERRES
    71   34  104 1    
    72   35   36 2    
    73   37   38 2    
    74   37   39 am   BACKBONE|DICT|INTERRES
    75   39   40 1    
    76   39  105 1    
    77   40   41 1    
    78   40   42 1    
    79   40  106 1    
    80   41  107 1    
    81   41  108 1    
    82   41  109 1    
    83   42   43 2    
    84   42   44 am   BACKBONE|DICT|INTERRES
    85   44   45 1    
    86   44  110 1    
    87   45   46 1    
    88   45   47 1    
    89   45  111 1    
    90   46  112 1    
    91   46  113 1    
    92   46  114 1    
    93   47   48 2    
    94   47   49 am   BACKBONE|DICT|INTERRES
    95   49   50 1    
    96   49  115 1    
    97   50   51 1    
    98   50   52 1    
    99   50  116 1    
   100   51  117 1    
   101   51  118 1    
   102   51  119 1    
   103   52   53 2    
   104   52   54 am   BACKBONE|DICT|INTERRES
   105   54   55 1    
   106   54  120 1    
   107   55   56 1    
   108   55   57 1    
   109   55  121 1    
   110   56  122 1    
   111   56  123 1    
   112   56  124 1    
   113   57   58 2    
   114   57   59 am   BACKBONE|DICT|INTERRES
   115   59   60 1    
   116   59  125 1    
   117   60   61 1    
   118   60   62 1    
   119   60  126 1    
   120   61  127 1    
   121   61  128 1    
   122   61  129 1    
   123   62   63 2    
   124   62   64 am   BACKBONE|DICT|INTERRES
   125   64   65 1    
   126   64  130 1    
   127   65   66 1    
   128   65   69 1    
   129   65  131 1    
   130   66   67 am   BACKBONE|DICT|INTERRES
   131   66   68 2    
   132   67  132 1    
   133   67  133 1    
   134   69   70 1    
   135   69  134 1    
   136   69  135 1    
   137   70   71 1    
   138   71  136 1    
   139   71  137 1    
@<TRIPOS>SUBSTRUCTURE
     1 UNK         1 GROUP             0       ****    0 ROOT    
