@<TRIPOS>MOLECULE
3R136
137   139    1
SMALL
USER_CHARGES


@<TRIPOS>ATOM
      1 CA         24.6756   25.0814    5.9346 C.3       0 UNK        -0.1979 
      2 C          25.4802   25.0333    4.6448 C.2       0 UNK         0.4864 
      3 O          25.7181   26.0785    4.0364 O.2       0 UNK        -0.5359 
      4 N          25.8990   23.8305    4.2271 N.am      1 UNK        -0.4318 
      5 CA         26.6251   23.5117    2.9887 C.3       1 UNK         0.0824 
      6 C6         27.9973   24.2249    2.8347 C.3       12 UNK        -0.0944 
      7 S7         29.1826   23.6946    4.1180 S.3       12 UNK        -0.2672 
      8 C8         30.6273   23.1914    3.1241 C.3       12 UNK         0.0333 
      9 C9         31.6210   24.3302    2.9159 C.ar      12 UNK        -0.0807 
     10 C10        32.9484   24.1859    3.3364 C.ar      12 UNK        -0.0894 
     11 C11        33.8767   25.2117    3.1305 C.ar      12 UNK        -0.0804 
     12 C12        33.4678   26.3969    2.5125 C.ar      12 UNK        -0.0824 
     13 C13        32.1444   26.5569    2.0972 C.ar      12 UNK        -0.0762 
     14 C14        31.2294   25.5180    2.2885 C.ar      12 UNK        -0.0782 
     15 C15        31.6913   27.8576    1.4605 C.3       12 UNK         0.0230 
     16 S16        31.6920   27.7437   -0.3521 S.3       12 UNK        -0.2608 
     17 C17        30.5517   29.1093   -0.7797 C.3       12 UNK        -0.0989 
     18 CA         29.1338   28.6480   -1.2161 C.3       5 UNK         0.0716 
     19 N          29.1722   27.6927   -2.3111 N.am      5 UNK        -0.4135 
     20 C          29.2182   27.9569   -3.6195 C.2       4 UNK         0.5031 
     21 O          29.3303   29.0899   -4.0895 O.2       4 UNK        -0.5229 
     22 CA         29.1019   26.7449   -4.5688 C.3       4 UNK         0.0329 
     23 CB         30.4780   26.3836   -5.1514 C.3       4 UNK        -0.2001 
     24 N          28.5306   25.5610   -3.9128 N.am      4 UNK        -0.4303 
     25 C          27.2627   25.4672   -3.4856 C.2       3 UNK         0.5044 
     26 O          26.3965   26.3024   -3.7530 O.2       3 UNK        -0.5152 
     27 CA         26.9124   24.2862   -2.5643 C.3       3 UNK         0.0319 
     28 CB         28.1205   23.4128   -2.1626 C.3       3 UNK        -0.2001 
     29 N          26.3042   24.8169   -1.3449 N.am      3 UNK        -0.4354 
     30 C          24.9938   24.8158   -1.0715 C.2       2 UNK         0.4964 
     31 O          24.1348   24.3483   -1.8228 O.2       2 UNK        -0.5047 
     32 CA         24.5865   25.4163    0.2914 C.3       2 UNK         0.0288 
     33 CB         23.0976   25.1899    0.6274 C.3       2 UNK        -0.2113 
     34 N          25.4235   24.9564    1.4084 N.am      2 UNK        -0.4145 
     35 C          25.7284   23.6943    1.7486 C.2       1 UNK         0.5006 
     36 O          25.3285   22.6948    1.1493 O.2       1 UNK        -0.5103 
     37 C          28.3168   28.0025   -0.0794 C.2       5 UNK         0.5055 
     38 O          28.1322   26.7781   -0.0669 O.2       5 UNK        -0.5220 
     39 N          27.8426   28.8365    0.8508 N.am      6 UNK        -0.4450 
     40 CA         27.1772   28.4184    2.0837 C.3       6 UNK         0.0367 
     41 CB         25.9071   29.2602    2.2841 C.3       6 UNK        -0.1929 
     42 C          28.1394   28.6092    3.2618 C.2       6 UNK         0.5070 
     43 O          29.0390   29.4474    3.1802 O.2       6 UNK        -0.5237 
     44 N          27.9088   27.8651    4.3503 N.am      7 UNK        -0.4739 
     45 CA         28.7632   27.7844    5.5468 C.3       7 UNK         0.0276 
     46 CB         28.1814   26.7312    6.5035 C.3       7 UNK        -0.1927 
     47 C          29.0087   29.1083    6.3011 C.2       7 UNK         0.5013 
     48 O          29.8777   29.1482    7.1730 O.2       7 UNK        -0.5193 
     49 N          28.2553   30.1635    5.9631 N.am      8 UNK        -0.4253 
     50 CA         28.4963   31.5389    6.4009 C.3       8 UNK         0.0242 
     51 CB         27.2785   32.4038    6.0371 C.3       8 UNK        -0.2000 
     52 C          29.7852   32.1444    5.8083 C.2       8 UNK         0.4948 
     53 O          30.3653   33.0331    6.4343 O.2       8 UNK        -0.5275 
     54 N          30.2134   31.6677    4.6296 N.am      9 UNK        -0.4246 
     55 CA         31.4860   32.0303    4.0074 C.3       9 UNK         0.0261 
     56 CB         31.3827   31.8314    2.4866 C.3       9 UNK        -0.1959 
     57 C          32.6189   31.1708    4.5891 C.2       9 UNK         0.5033 
     58 O          32.4188   29.9793    4.8370 O.2       9 UNK        -0.5390 
     59 N          33.7928   31.7845    4.7783 N.am      10 UNK        -0.4215 
     60 CA         34.9978   31.1212    5.2792 C.3       10 UNK         0.0240 
     61 CB         36.0121   32.1883    5.7237 C.3       10 UNK        -0.1982 
     62 C          35.6229   30.1955    4.2225 C.2       10 UNK         0.4970 
     63 O          35.5733   30.5047    3.0291 O.2       10 UNK        -0.4916 
     64 N          36.2296   29.1001    4.6904 N.am      11 UNK        -0.4279 
     65 CA         36.9950   28.1523    3.8692 C.3       11 UNK         0.1003 
     66 C          38.3376   28.7544    3.3718 C.2       11 UNK         0.5709 
     67 N          38.8045   28.3456    2.1999 N.am      11 UNK        -0.7358 
     68 O          38.9767   29.5549    4.0532 O.2       11 UNK        -0.4999 
     69 C69        37.2343   26.8148    4.6177 C.3       12 UNK        -0.0954 
     70 S70        35.6767   25.9837    5.0767 S.3       12 UNK        -0.2268 
     71 C71        35.3253   25.0413    3.5600 C.3       12 UNK         0.0203 
     72 H72        24.5713   24.0959    6.3880 H         1 UNK         0.0888 
     73 H73        25.1586   25.7369    6.6575 H         1 UNK         0.0888 
     74 H74        23.6778   25.4715    5.7360 H         1 UNK         0.0888 
     75 H75        25.6571   23.0220    4.7830 H         1 UNK         0.3017 
     76 H76        26.8309   22.4411    3.0445 H         1 UNK         0.0873 
     77 H77        28.4161   24.0154    1.8489 H         1 UNK         0.0745 
     78 H78        27.8989   25.3084    2.8871 H         1 UNK         0.0745 
     79 H79        31.1107   22.3621    3.6427 H         1 UNK         0.0705 
     80 H80        30.3135   22.7945    2.1581 H         1 UNK         0.0705 
     81 H81        33.2642   23.2700    3.8174 H         1 UNK         0.1334 
     82 H82        34.1778   27.1983    2.3618 H         1 UNK         0.1417 
     83 H83        30.2098   25.6443    1.9530 H         1 UNK         0.1562 
     84 H84        32.3283   28.6853    1.7768 H         1 UNK         0.0748 
     85 H85        30.6879   28.0885    1.8107 H         1 UNK         0.0748 
     86 H86        31.0086   29.6682   -1.5980 H         1 UNK         0.0940 
     87 H87        30.4902   29.8179    0.0477 H         1 UNK         0.0940 
     88 H88        28.5715   29.5228   -1.5502 H         1 UNK         0.0703 
     89 H89        29.0447   26.7379   -2.0043 H         1 UNK         0.3081 
     90 H90        28.4433   27.0330   -5.3910 H         1 UNK         0.0719 
     91 H91        31.1813   26.0855   -4.3726 H         1 UNK         0.0809 
     92 H92        30.4039   25.5673   -5.8701 H         1 UNK         0.0809 
     93 H93        30.9148   27.2352   -5.6751 H         1 UNK         0.0809 
     94 H94        29.1751   24.8221   -3.6695 H         1 UNK         0.2990 
     95 H95        26.2046   23.6551   -3.1053 H         1 UNK         0.0690 
     96 H96        27.8064   22.5999   -1.5071 H         1 UNK         0.0788 
     97 H97        28.8825   23.9829   -1.6287 H         1 UNK         0.0788 
     98 H98        28.5874   22.9500   -3.0331 H         1 UNK         0.0788 
     99 H99        26.9280   25.3064   -0.7095 H         1 UNK         0.2993 
    100 H100       24.7478   26.4923    0.2069 H         1 UNK         0.0949 
    101 H101       22.8287   25.6645    1.5714 H         1 UNK         0.0767 
    102 H102       22.4519   25.6138   -0.1427 H         1 UNK         0.0767 
    103 H103       22.8602   24.1283    0.7065 H         1 UNK         0.0767 
    104 H104       25.7348   25.6745    2.0536 H         1 UNK         0.3013 
    105 H105       28.0940   29.8143    0.8064 H         1 UNK         0.3121 
    106 H106       26.8967   27.3667    2.0275 H         1 UNK         0.0774 
    107 H107       26.1352   30.3215    2.3915 H         1 UNK         0.0815 
    108 H108       25.3693   28.9472    3.1804 H         1 UNK         0.0815 
    109 H109       25.2225   29.1477    1.4433 H         1 UNK         0.0815 
    110 H110       27.1111   27.2306    4.3266 H         1 UNK         0.2987 
    111 H111       29.7429   27.4358    5.2119 H         1 UNK         0.0949 
    112 H112       27.1955   27.0232    6.8653 H         1 UNK         0.0806 
    113 H113       28.0925   25.7591    6.0202 H         1 UNK         0.0806 
    114 H114       28.8221   26.5957    7.3760 H         1 UNK         0.0806 
    115 H115       27.5669   30.0276    5.2378 H         1 UNK         0.3010 
    116 H116       28.6038   31.5346    7.4877 H         1 UNK         0.0829 
    117 H117       26.3696   32.0290    6.5082 H         1 UNK         0.0813 
    118 H118       27.4164   33.4320    6.3748 H         1 UNK         0.0813 
    119 H119       27.1120   32.4345    4.9594 H         1 UNK         0.0813 
    120 H120       29.7220   30.8845    4.2036 H         1 UNK         0.3038 
    121 H121       31.6944   33.0845    4.2032 H         1 UNK         0.0769 
    122 H122       31.1757   30.7920    2.2332 H         1 UNK         0.0811 
    123 H123       32.3138   32.1086    1.9906 H         1 UNK         0.0811 
    124 H124       30.5893   32.4442    2.0589 H         1 UNK         0.0811 
    125 H125       33.8896   32.7519    4.5055 H         1 UNK         0.3204 
    126 H126       34.7197   30.5231    6.1502 H         1 UNK         0.0748 
    127 H127       36.9143   31.7264    6.1274 H         1 UNK         0.0771 
    128 H128       36.3182   32.8257    4.8928 H         1 UNK         0.0771 
    129 H129       35.6002   32.8278    6.5048 H         1 UNK         0.0771 
    130 H130       36.2436   28.9296    5.6846 H         1 UNK         0.2980 
    131 H131       36.3938   27.9362    2.9841 H         1 UNK         0.0545 
    132 H132       38.2970   27.6814    1.6365 H         1 UNK         0.3459 
    133 H133       39.6821   28.7147    1.8682 H         1 UNK         0.3459 
    134 H134       37.8330   26.1292    4.0148 H         1 UNK         0.0616 
    135 H135       37.8066   26.9883    5.5309 H         1 UNK         0.0616 
    136 H136       35.5597   23.9901    3.7340 H         1 UNK         0.0634 
    137 H137       35.9741   25.3675    2.7459 H         1 UNK         0.0634 
@<TRIPOS>BOND
     1    1    2 1    
     2    1   72 1    
     3    1   73 1    
     4    1   74 1    
     5    2    3 2    
     6    2    4 am   BACKBONE|DICT|INTERRES
     7    4    5 1    
     8    4   75 1    
     9    5    6 1    
    10    5   35 1    
    11    5   76 1    
    12    6    7 1    
    13    6   77 1    
    14    6   78 1    
    15    7    8 1    
    16    8    9 1    
    17    8   79 1    
    18    8   80 1    
    19    9   10 ar   
    20    9   14 ar   
    21   10   11 ar   
    22   10   81 1    
    23   11   12 ar   
    24   11   71 1    
    25   12   13 ar   
    26   12   82 1    
    27   13   14 ar   
    28   13   15 1    
    29   14   83 1    
    30   15   16 1    
    31   15   84 1    
    32   15   85 1    
    33   16   17 1    
    34   17   18 1    
    35   17   86 1    
    36   17   87 1    
    37   18   19 1    
    38   18   37 1    
    39   18   88 1    
    40   19   20 am   BACKBONE|DICT|INTERRES
    41   19   89 1    
    42   20   21 2    
    43   20   22 1    
    44   22   23 1    
    45   22   24 1    
    46   22   90 1    
    47   23   91 1    
    48   23   92 1    
    49   23   93 1    
    50   24   25 am   BACKBONE|DICT|INTERRES
    51   24   94 1    
    52   25   26 2    
    53   25   27 1    
    54   27   28 1    
    55   27   29 1    
    56   27   95 1    
    57   28   96 1    
    58   28   97 1    
    59   28   98 1    
    60   29   30 am   BACKBONE|DICT|INTERRES
    61   29   99 1    
    62   30   31 2    
    63   30   32 1    
    64   32   33 1    
    65   32   34 1    
    66   32  100 1    
    67   33  101 1    
    68   33  102 1    
    69   33  103 1    
    70   34   35 am   BACKBONE|DICT|INTERRES
    71   34  104 1    
    72   35   36 2    
    73   37   38 2    
    74   37   39 am   BACKBONE|DICT|INTERRES
    75   39   40 1    
    76   39  105 1    
    77   40   41 1    
    78   40   42 1    
    79   40  106 1    
    80   41  107 1    
    81   41  108 1    
    82   41  109 1    
    83   42   43 2    
    84   42   44 am   BACKBONE|DICT|INTERRES
    85   44   45 1    
    86   44  110 1    
    87   45   46 1    
    88   45   47 1    
    89   45  111 1    
    90   46  112 1    
    91   46  113 1    
    92   46  114 1    
    93   47   48 2    
    94   47   49 am   BACKBONE|DICT|INTERRES
    95   49   50 1    
    96   49  115 1    
    97   50   51 1    
    98   50   52 1    
    99   50  116 1    
   100   51  117 1    
   101   51  118 1    
   102   51  119 1    
   103   52   53 2    
   104   52   54 am   BACKBONE|DICT|INTERRES
   105   54   55 1    
   106   54  120 1    
   107   55   56 1    
   108   55   57 1    
   109   55  121 1    
   110   56  122 1    
   111   56  123 1    
   112   56  124 1    
   113   57   58 2    
   114   57   59 am   BACKBONE|DICT|INTERRES
   115   59   60 1    
   116   59  125 1    
   117   60   61 1    
   118   60   62 1    
   119   60  126 1    
   120   61  127 1    
   121   61  128 1    
   122   61  129 1    
   123   62   63 2    
   124   62   64 am   BACKBONE|DICT|INTERRES
   125   64   65 1    
   126   64  130 1    
   127   65   66 1    
   128   65   69 1    
   129   65  131 1    
   130   66   67 am   BACKBONE|DICT|INTERRES
   131   66   68 2    
   132   67  132 1    
   133   67  133 1    
   134   69   70 1    
   135   69  134 1    
   136   69  135 1    
   137   70   71 1    
   138   71  136 1    
   139   71  137 1    
@<TRIPOS>SUBSTRUCTURE
     1 UNK         1 GROUP             0       ****    0 ROOT    
