@<TRIPOS>MOLECULE
3R136
137   139    1
SMALL
USER_CHARGES


@<TRIPOS>ATOM
      1 CA         30.2094   20.9056   -3.6956 C.3       0 UNK        -0.1979 
      2 C          30.1341   21.9672   -2.6082 C.2       0 UNK         0.4864 
      3 O          30.0808   23.1572   -2.9187 O.2       0 UNK        -0.5359 
      4 N          30.1195   21.5454   -1.3358 N.am      1 UNK        -0.4318 
      5 CA         30.0584   22.4228   -0.1574 C.3       1 UNK         0.0824 
      6 C6         30.7522   21.7633    1.0657 C.3       12 UNK        -0.0944 
      7 S7         31.6269   22.9806    2.1041 S.3       12 UNK        -0.2672 
      8 C8         30.7474   22.8021    3.6922 C.3       12 UNK         0.0333 
      9 C9         31.1911   23.8151    4.7459 C.ar      12 UNK        -0.0807 
     10 C10        32.5405   24.1472    4.9097 C.ar      12 UNK        -0.0894 
     11 C11        32.9437   25.0885    5.8661 C.ar      12 UNK        -0.0804 
     12 C12        31.9764   25.6586    6.7004 C.ar      12 UNK        -0.0824 
     13 C13        30.6292   25.3031    6.5835 C.ar      12 UNK        -0.0762 
     14 C14        30.2427   24.3910    5.5961 C.ar      12 UNK        -0.0782 
     15 C15        29.6033   25.8587    7.5641 C.3       12 UNK         0.0230 
     16 S16        29.1080   27.5687    7.1816 S.3       12 UNK        -0.2608 
     17 C17        28.1601   27.3542    5.6389 C.3       12 UNK        -0.0989 
     18 CA         28.7131   28.2597    4.5073 C.3       5 UNK         0.0716 
     19 N          28.7471   27.5791    3.2119 N.am      5 UNK        -0.4135 
     20 C          29.4016   28.0377    2.1359 C.2       4 UNK         0.5031 
     21 O          30.1359   29.0253    2.1513 O.2       4 UNK        -0.5229 
     22 CA         29.1840   27.2849    0.8136 C.3       4 UNK         0.0329 
     23 CB         30.3185   26.2791    0.5799 C.3       4 UNK        -0.2001 
     24 N          27.8824   26.6075    0.7456 N.am      4 UNK        -0.4303 
     25 C          26.7096   27.2589    0.6708 C.2       3 UNK         0.5044 
     26 O          26.6333   28.4882    0.6688 O.2       3 UNK        -0.5152 
     27 CA         25.4028   26.4367    0.6677 C.3       3 UNK         0.0319 
     28 CB         24.3583   27.0098   -0.3138 C.3       3 UNK        -0.2001 
     29 N          25.5815   24.9911    0.4774 N.am      3 UNK        -0.4354 
     30 C          26.0235   24.3565   -0.6177 C.2       2 UNK         0.4964 
     31 O          26.3186   24.9100   -1.6783 O.2       2 UNK        -0.5047 
     32 CA         26.2109   22.8348   -0.4798 C.3       2 UNK         0.0288 
     33 CB         25.3860   22.0763   -1.5335 C.3       2 UNK        -0.2113 
     34 N          27.6193   22.4507   -0.5997 N.am      2 UNK        -0.4145 
     35 C          28.6225   22.9043    0.1690 C.2       1 UNK         0.5006 
     36 O          28.4421   23.6781    1.1121 O.2       1 UNK        -0.5103 
     37 C          27.9389   29.5910    4.4116 C.2       5 UNK         0.5055 
     38 O          28.4363   30.6256    4.8598 O.2       5 UNK        -0.5220 
     39 N          26.7513   29.5363    3.7865 N.am      6 UNK        -0.4450 
     40 CA         25.8700   30.6811    3.5412 C.3       6 UNK         0.0367 
     41 CB         24.5187   30.1876    2.9998 C.3       6 UNK        -0.1929 
     42 C          26.4874   31.7220    2.5941 C.2       6 UNK         0.5070 
     43 O          26.2619   32.9175    2.7833 O.2       6 UNK        -0.5237 
     44 N          27.3052   31.2673    1.6349 N.am      7 UNK        -0.4739 
     45 CA         28.1099   32.0860    0.7209 C.3       7 UNK         0.0276 
     46 CB         28.5282   31.2142   -0.4780 C.3       7 UNK        -0.1927 
     47 C          29.3226   32.7578    1.4077 C.2       7 UNK         0.5013 
     48 O          30.4283   32.7237    0.8667 O.2       7 UNK        -0.5193 
     49 N          29.0898   33.3598    2.5832 N.am      8 UNK        -0.4253 
     50 CA         30.0401   34.0764    3.4413 C.3       8 UNK         0.0242 
     51 CB         30.4544   35.4099    2.7823 C.3       8 UNK        -0.2000 
     52 C          31.2473   33.2196    3.8751 C.2       8 UNK         0.4948 
     53 O          32.3755   33.7166    3.8744 O.2       8 UNK        -0.5275 
     54 N          30.9829   31.9557    4.2463 N.am      9 UNK        -0.4246 
     55 CA         31.9530   30.9392    4.6736 C.3       9 UNK         0.0261 
     56 CB         32.5278   31.2838    6.0638 C.3       9 UNK        -0.1959 
     57 C          33.0418   30.6723    3.6163 C.2       9 UNK         0.5033 
     58 O          34.2343   30.7751    3.9132 O.2       9 UNK        -0.5390 
     59 N          32.6061   30.3372    2.3941 N.am      10 UNK        -0.4215 
     60 CA         33.4739   30.0088    1.2606 C.3       10 UNK         0.0240 
     61 CB         32.6442   29.9710   -0.0337 C.3       10 UNK        -0.1982 
     62 C          34.2309   28.6856    1.4579 C.2       10 UNK         0.4970 
     63 O          35.3811   28.5856    1.0300 O.2       10 UNK        -0.4916 
     64 N          33.5787   27.7116    2.1116 N.am      11 UNK        -0.4279 
     65 CA         34.1440   26.4073    2.4996 C.3       11 UNK         0.1003 
     66 C          34.5453   25.4798    1.3056 C.2       11 UNK         0.5709 
     67 N          34.0514   25.7152    0.0951 N.am      11 UNK        -0.7358 
     68 O          35.2951   24.5209    1.4689 O.2       11 UNK        -0.4999 
     69 C69        35.2522   26.5851    3.5819 C.3       12 UNK        -0.0954 
     70 S70        35.5207   25.1357    4.6589 S.3       12 UNK        -0.2268 
     71 C71        34.4118   25.4689    6.0740 C.3       12 UNK         0.0203 
     72 H72        29.3391   20.9735   -4.3479 H         1 UNK         0.0888 
     73 H73        31.1022   21.0541   -4.3025 H         1 UNK         0.0888 
     74 H74        30.2454   19.8981   -3.2816 H         1 UNK         0.0888 
     75 H75        30.1598   20.5539   -1.1429 H         1 UNK         0.3017 
     76 H76        30.6205   23.3241   -0.4114 H         1 UNK         0.0873 
     77 H77        30.0515   21.1746    1.6614 H         1 UNK         0.0745 
     78 H78        31.5148   21.0570    0.7332 H         1 UNK         0.0745 
     79 H79        29.6769   22.9003    3.5043 H         1 UNK         0.0705 
     80 H80        30.9095   21.7956    4.0799 H         1 UNK         0.0705 
     81 H81        33.2750   23.6668    4.2797 H         1 UNK         0.1334 
     82 H82        32.2747   26.3637    7.4648 H         1 UNK         0.1417 
     83 H83        29.2027   24.1088    5.5045 H         1 UNK         0.1562 
     84 H84        30.0230   25.8365    8.5710 H         1 UNK         0.0748 
     85 H85        28.7156   25.2249    7.5973 H         1 UNK         0.0748 
     86 H86        27.1040   27.5400    5.8464 H         1 UNK         0.0940 
     87 H87        28.2055   26.3062    5.3449 H         1 UNK         0.0940 
     88 H88        29.7510   28.5019    4.7377 H         1 UNK         0.0703 
     89 H89        28.1937   26.7415    3.1123 H         1 UNK         0.3081 
     90 H90        29.2182   28.0203    0.0075 H         1 UNK         0.0719 
     91 H91        31.2832   26.7833    0.5413 H         1 UNK         0.0809 
     92 H92        30.1927   25.7517   -0.3656 H         1 UNK         0.0809 
     93 H93        30.3698   25.5398    1.3791 H         1 UNK         0.0809 
     94 H94        27.8902   25.5924    0.7780 H         1 UNK         0.2990 
     95 H95        24.9912   26.5482    1.6718 H         1 UNK         0.0690 
     96 H96        23.4317   26.4367   -0.2878 H         1 UNK         0.0788 
     97 H97        24.7239   27.0126   -1.3410 H         1 UNK         0.0788 
     98 H98        24.1061   28.0403   -0.0603 H         1 UNK         0.0788 
     99 H99        25.4010   24.4303    1.2993 H         1 UNK         0.2993 
    100 H100       25.8683   22.5211    0.5086 H         1 UNK         0.0949 
    101 H101       25.4620   20.9972   -1.3971 H         1 UNK         0.0767 
    102 H102       24.3292   22.3373   -1.4625 H         1 UNK         0.0767 
    103 H103       25.7120   22.3108   -2.5479 H         1 UNK         0.0767 
    104 H104       27.8566   21.8425   -1.3686 H         1 UNK         0.3013 
    105 H105       26.4437   28.6510    3.4144 H         1 UNK         0.3121 
    106 H106       25.6946   31.1741    4.4999 H         1 UNK         0.0774 
    107 H107       24.6259   29.6795    2.0409 H         1 UNK         0.0815 
    108 H108       23.8334   31.0228    2.8483 H         1 UNK         0.0815 
    109 H109       24.0381   29.4989    3.6947 H         1 UNK         0.0815 
    110 H110       27.3830   30.2626    1.5204 H         1 UNK         0.2987 
    111 H111       27.4773   32.8915    0.3421 H         1 UNK         0.0949 
    112 H112       29.2170   30.4253   -0.1753 H         1 UNK         0.0806 
    113 H113       27.6657   30.7443   -0.9512 H         1 UNK         0.0806 
    114 H114       29.0312   31.8105   -1.2403 H         1 UNK         0.0806 
    115 H115       28.1300   33.3260    2.9172 H         1 UNK         0.3010 
    116 H116       29.4995   34.3170    4.3579 H         1 UNK         0.0829 
    117 H117       31.0382   35.2469    1.8757 H         1 UNK         0.0813 
    118 H118       29.5836   36.0095    2.5175 H         1 UNK         0.0813 
    119 H119       31.0646   36.0092    3.4592 H         1 UNK         0.0813 
    120 H120       30.0144   31.6456    4.2387 H         1 UNK         0.3038 
    121 H121       31.3993   30.0077    4.7770 H         1 UNK         0.0769 
    122 H122       33.1802   30.4873    6.4238 H         1 UNK         0.0811 
    123 H123       33.1158   32.2019    6.0442 H         1 UNK         0.0811 
    124 H124       31.7336   31.4087    6.7999 H         1 UNK         0.0811 
    125 H125       31.6060   30.2091    2.2508 H         1 UNK         0.3204 
    126 H126       34.2161   30.8044    1.1662 H         1 UNK         0.0748 
    127 H127       33.2730   29.7412   -0.8949 H         1 UNK         0.0771 
    128 H128       31.8570   29.2181    0.0076 H         1 UNK         0.0771 
    129 H129       32.1723   30.9343   -0.2274 H         1 UNK         0.0771 
    130 H130       32.6313   27.8907    2.4101 H         1 UNK         0.2980 
    131 H131       33.3072   25.8928    2.9684 H         1 UNK         0.0545 
    132 H132       34.3104   25.1068   -0.6647 H         1 UNK         0.3459 
    133 H133       33.4525   26.5055   -0.0711 H         1 UNK         0.3459 
    134 H134       36.2024   26.8391    3.1093 H         1 UNK         0.0616 
    135 H135       35.0144   27.4330    4.2264 H         1 UNK         0.0616 
    136 H136       34.7839   24.9026    6.9286 H         1 UNK         0.0634 
    137 H137       34.4920   26.5219    6.3482 H         1 UNK         0.0634 
@<TRIPOS>BOND
     1    1    2 1    
     2    1   72 1    
     3    1   73 1    
     4    1   74 1    
     5    2    3 2    
     6    2    4 am   BACKBONE|DICT|INTERRES
     7    4    5 1    
     8    4   75 1    
     9    5    6 1    
    10    5   35 1    
    11    5   76 1    
    12    6    7 1    
    13    6   77 1    
    14    6   78 1    
    15    7    8 1    
    16    8    9 1    
    17    8   79 1    
    18    8   80 1    
    19    9   10 ar   
    20    9   14 ar   
    21   10   11 ar   
    22   10   81 1    
    23   11   12 ar   
    24   11   71 1    
    25   12   13 ar   
    26   12   82 1    
    27   13   14 ar   
    28   13   15 1    
    29   14   83 1    
    30   15   16 1    
    31   15   84 1    
    32   15   85 1    
    33   16   17 1    
    34   17   18 1    
    35   17   86 1    
    36   17   87 1    
    37   18   19 1    
    38   18   37 1    
    39   18   88 1    
    40   19   20 am   BACKBONE|DICT|INTERRES
    41   19   89 1    
    42   20   21 2    
    43   20   22 1    
    44   22   23 1    
    45   22   24 1    
    46   22   90 1    
    47   23   91 1    
    48   23   92 1    
    49   23   93 1    
    50   24   25 am   BACKBONE|DICT|INTERRES
    51   24   94 1    
    52   25   26 2    
    53   25   27 1    
    54   27   28 1    
    55   27   29 1    
    56   27   95 1    
    57   28   96 1    
    58   28   97 1    
    59   28   98 1    
    60   29   30 am   BACKBONE|DICT|INTERRES
    61   29   99 1    
    62   30   31 2    
    63   30   32 1    
    64   32   33 1    
    65   32   34 1    
    66   32  100 1    
    67   33  101 1    
    68   33  102 1    
    69   33  103 1    
    70   34   35 am   BACKBONE|DICT|INTERRES
    71   34  104 1    
    72   35   36 2    
    73   37   38 2    
    74   37   39 am   BACKBONE|DICT|INTERRES
    75   39   40 1    
    76   39  105 1    
    77   40   41 1    
    78   40   42 1    
    79   40  106 1    
    80   41  107 1    
    81   41  108 1    
    82   41  109 1    
    83   42   43 2    
    84   42   44 am   BACKBONE|DICT|INTERRES
    85   44   45 1    
    86   44  110 1    
    87   45   46 1    
    88   45   47 1    
    89   45  111 1    
    90   46  112 1    
    91   46  113 1    
    92   46  114 1    
    93   47   48 2    
    94   47   49 am   BACKBONE|DICT|INTERRES
    95   49   50 1    
    96   49  115 1    
    97   50   51 1    
    98   50   52 1    
    99   50  116 1    
   100   51  117 1    
   101   51  118 1    
   102   51  119 1    
   103   52   53 2    
   104   52   54 am   BACKBONE|DICT|INTERRES
   105   54   55 1    
   106   54  120 1    
   107   55   56 1    
   108   55   57 1    
   109   55  121 1    
   110   56  122 1    
   111   56  123 1    
   112   56  124 1    
   113   57   58 2    
   114   57   59 am   BACKBONE|DICT|INTERRES
   115   59   60 1    
   116   59  125 1    
   117   60   61 1    
   118   60   62 1    
   119   60  126 1    
   120   61  127 1    
   121   61  128 1    
   122   61  129 1    
   123   62   63 2    
   124   62   64 am   BACKBONE|DICT|INTERRES
   125   64   65 1    
   126   64  130 1    
   127   65   66 1    
   128   65   69 1    
   129   65  131 1    
   130   66   67 am   BACKBONE|DICT|INTERRES
   131   66   68 2    
   132   67  132 1    
   133   67  133 1    
   134   69   70 1    
   135   69  134 1    
   136   69  135 1    
   137   70   71 1    
   138   71  136 1    
   139   71  137 1    
@<TRIPOS>SUBSTRUCTURE
     1 UNK         1 GROUP             0       ****    0 ROOT    
