@<TRIPOS>MOLECULE
3R136
137   139    1
SMALL
USER_CHARGES


@<TRIPOS>ATOM
      1 CA         31.1750   19.7263   -0.3715 C.3       0 UNK        -0.1979 
      2 C          30.4435   20.9600   -0.8788 C.2       0 UNK         0.4864 
      3 O          29.5763   20.8461   -1.7455 O.2       0 UNK        -0.5359 
      4 N          30.7715   22.1395   -0.3347 N.am      1 UNK        -0.4318 
      5 CA         30.1942   23.4374   -0.7111 C.3       1 UNK         0.0824 
      6 C6         31.2038   24.5929   -0.4808 C.3       12 UNK        -0.0944 
      7 S7         31.6320   24.8661    1.2750 S.3       12 UNK        -0.2672 
      8 C8         30.7597   26.4306    1.5965 C.3       12 UNK         0.0333 
      9 C9         30.1931   26.4643    3.0040 C.ar      12 UNK        -0.0807 
     10 C10        30.8915   27.0908    4.0368 C.ar      12 UNK        -0.0894 
     11 C11        30.3516   27.1494    5.3234 C.ar      12 UNK        -0.0804 
     12 C12        29.0829   26.6124    5.5652 C.ar      12 UNK        -0.0824 
     13 C13        28.3639   25.9973    4.5336 C.ar      12 UNK        -0.0762 
     14 C14        28.9456   25.8939    3.2652 C.ar      12 UNK        -0.0782 
     15 C15        26.9639   25.4497    4.8007 C.3       12 UNK         0.0230 
     16 S16        25.7444   25.8687    3.5034 S.3       12 UNK        -0.2608 
     17 C17        25.7661   27.6944    3.4936 C.3       12 UNK        -0.0989 
     18 CA         26.5793   28.2687    2.3044 C.3       5 UNK         0.0716 
     19 N          26.0963   27.7961    0.9936 N.am      5 UNK        -0.4135 
     20 C          26.7871   27.8713   -0.1533 C.2       4 UNK         0.5031 
     21 O          27.9122   28.3683   -0.2315 O.2       4 UNK        -0.5229 
     22 CA         26.0811   27.3575   -1.4161 C.3       4 UNK         0.0329 
     23 CB         26.8500   27.6973   -2.7082 C.3       4 UNK        -0.2001 
     24 N          25.8889   25.9116   -1.3348 N.am      4 UNK        -0.4303 
     25 C          24.8167   25.2526   -1.7994 C.2       3 UNK         0.5044 
     26 O          23.8350   25.8150   -2.2870 O.2       3 UNK        -0.5152 
     27 CA         24.8277   23.7098   -1.7460 C.3       3 UNK         0.0319 
     28 CB         25.0896   23.1292   -3.1455 C.3       3 UNK        -0.2001 
     29 N          25.8157   23.1606   -0.8170 N.am      3 UNK        -0.4354 
     30 C          25.7151   23.2076    0.5175 C.2       2 UNK         0.4964 
     31 O          24.7019   23.5874    1.1037 O.2       2 UNK        -0.5047 
     32 CA         26.9459   22.7779    1.3434 C.3       2 UNK         0.0288 
     33 CB         26.6959   21.4156    2.0108 C.3       2 UNK        -0.2113 
     34 N          28.2222   22.7188    0.6148 N.am      2 UNK        -0.4145 
     35 C          28.8091   23.7117   -0.0734 C.2       1 UNK         0.5006 
     36 O          28.2869   24.8160   -0.2262 O.2       1 UNK        -0.5103 
     37 C          26.7555   29.8016    2.4161 C.2       5 UNK         0.5055 
     38 O          27.2313   30.2778    3.4476 O.2       5 UNK        -0.5220 
     39 N          26.4317   30.5484    1.3497 N.am      6 UNK        -0.4450 
     40 CA         26.8379   31.9402    1.1473 C.3       6 UNK         0.0367 
     41 CB         26.1358   32.4981   -0.1006 C.3       6 UNK        -0.1929 
     42 C          28.3666   32.1022    1.0233 C.2       6 UNK         0.5070 
     43 O          28.8871   33.1569    1.3867 O.2       6 UNK        -0.5237 
     44 N          29.0754   31.0536    0.5727 N.am      7 UNK        -0.4739 
     45 CA         30.5406   30.9738    0.5166 C.3       7 UNK         0.0276 
     46 CB         30.9424   29.9261   -0.5382 C.3       7 UNK        -0.1927 
     47 C          31.1647   30.6840    1.8996 C.2       7 UNK         0.5013 
     48 O          32.0327   29.8169    2.0224 O.2       7 UNK        -0.5193 
     49 N          30.7194   31.4266    2.9230 N.am      8 UNK        -0.4253 
     50 CA         31.0666   31.2546    4.3374 C.3       8 UNK         0.0242 
     51 CB         30.2456   32.2396    5.1831 C.3       8 UNK        -0.2000 
     52 C          32.5672   31.3868    4.6536 C.2       8 UNK         0.4948 
     53 O          33.0287   30.8184    5.6436 O.2       8 UNK        -0.5275 
     54 N          33.3129   32.0865    3.7863 N.am      9 UNK        -0.4246 
     55 CA         34.7714   32.2145    3.8280 C.3       9 UNK         0.0261 
     56 CB         35.2299   33.1450    2.6938 C.3       9 UNK        -0.1959 
     57 C          35.5233   30.8714    3.7576 C.2       9 UNK         0.5033 
     58 O          36.6397   30.7910    4.2719 O.2       9 UNK        -0.5390 
     59 N          34.9038   29.8322    3.1734 N.am      10 UNK        -0.4215 
     60 CA         35.4523   28.4733    3.1192 C.3       10 UNK         0.0240 
     61 CB         34.6240   27.6179    2.1479 C.3       10 UNK        -0.1982 
     62 C          35.5769   27.7893    4.4966 C.2       10 UNK         0.4970 
     63 O          36.3792   26.8625    4.6186 O.2       10 UNK        -0.4916 
     64 N          34.8281   28.2604    5.5061 N.am      11 UNK        -0.4279 
     65 CA         34.9996   27.8596    6.9137 C.3       11 UNK         0.1003 
     66 C          36.1190   28.6516    7.6545 C.2       11 UNK         0.5709 
     67 N          36.7936   29.6167    7.0381 N.am      11 UNK        -0.7358 
     68 O          36.3988   28.3709    8.8178 O.2       11 UNK        -0.4999 
     69 C69        33.6625   27.8880    7.7038 C.3       12 UNK        -0.0954 
     70 S70        32.4475   26.6942    7.0502 S.3       12 UNK        -0.2268 
     71 C71        31.1482   27.8060    6.4374 C.3       12 UNK         0.0203 
     72 H72        31.7037   19.2410   -1.1916 H         1 UNK         0.0888 
     73 H73        31.9025   19.9728    0.4018 H         1 UNK         0.0888 
     74 H74        30.4648   19.0128    0.0456 H         1 UNK         0.0888 
     75 H75        31.4773   22.1790    0.3883 H         1 UNK         0.3017 
     76 H76        30.0065   23.4084   -1.7868 H         1 UNK         0.0873 
     77 H77        30.8326   25.5176   -0.9269 H         1 UNK         0.0745 
     78 H78        32.1297   24.3762   -1.0159 H         1 UNK         0.0745 
     79 H79        31.4462   27.2616    1.4351 H         1 UNK         0.0705 
     80 H80        29.9434   26.5758    0.8877 H         1 UNK         0.0705 
     81 H81        31.8575   27.5342    3.8464 H         1 UNK         0.1334 
     82 H82        28.6557   26.6771    6.5567 H         1 UNK         0.1417 
     83 H83        28.4038   25.4187    2.4599 H         1 UNK         0.1562 
     84 H84        26.5853   25.8113    5.7580 H         1 UNK         0.0748 
     85 H85        27.0251   24.3639    4.8838 H         1 UNK         0.0748 
     86 H86        26.1709   28.0419    4.4465 H         1 UNK         0.0940 
     87 H87        24.7353   28.0511    3.4564 H         1 UNK         0.0940 
     88 H88        27.5976   27.8978    2.3970 H         1 UNK         0.0703 
     89 H89        25.1865   27.3574    0.9869 H         1 UNK         0.3081 
     90 H90        25.1131   27.8614   -1.4560 H         1 UNK         0.0719 
     91 H91        26.2968   27.3841   -3.5936 H         1 UNK         0.0809 
     92 H92        27.8259   27.2102   -2.7327 H         1 UNK         0.0809 
     93 H93        27.0178   28.7717   -2.7942 H         1 UNK         0.0809 
     94 H94        26.6631   25.3929   -0.9223 H         1 UNK         0.2990 
     95 H95        23.8355   23.3871   -1.4232 H         1 UNK         0.0690 
     96 H96        25.0327   22.0405   -3.1413 H         1 UNK         0.0788 
     97 H97        26.0725   23.4141   -3.5234 H         1 UNK         0.0788 
     98 H98        24.3490   23.4874   -3.8621 H         1 UNK         0.0788 
     99 H99        26.6770   22.8188   -1.2177 H         1 UNK         0.2993 
    100 H100       27.0624   23.5217    2.1322 H         1 UNK         0.0949 
    101 H101       27.5029   21.1541    2.6957 H         1 UNK         0.0767 
    102 H102       25.7733   21.4279    2.5933 H         1 UNK         0.0767 
    103 H103       26.6060   20.6167    1.2735 H         1 UNK         0.0767 
    104 H104       28.7195   21.8419    0.6634 H         1 UNK         0.3013 
    105 H105       26.0355   30.0763    0.5513 H         1 UNK         0.3121 
    106 H106       26.5129   32.5173    2.0156 H         1 UNK         0.0774 
    107 H107       26.4008   33.5443   -0.2605 H         1 UNK         0.0815 
    108 H108       26.4155   31.9504   -1.0016 H         1 UNK         0.0815 
    109 H109       25.0512   32.4526   -0.0008 H         1 UNK         0.0815 
    110 H110       28.5810   30.2023    0.3205 H         1 UNK         0.2987 
    111 H111       30.9308   31.9399    0.1895 H         1 UNK         0.0949 
    112 H112       30.5984   28.9283   -0.2646 H         1 UNK         0.0806 
    113 H113       30.5238   30.1660   -1.5156 H         1 UNK         0.0806 
    114 H114       32.0261   29.8781   -0.6532 H         1 UNK         0.0806 
    115 H115       30.0248   32.1336    2.7054 H         1 UNK         0.3010 
    116 H116       30.7641   30.2425    4.6078 H         1 UNK         0.0829 
    117 H117       29.1754   32.0801    5.0467 H         1 UNK         0.0813 
    118 H118       30.4575   32.1132    6.2459 H         1 UNK         0.0813 
    119 H119       30.4678   33.2758    4.9253 H         1 UNK         0.0813 
    120 H120       32.8418   32.5170    3.0043 H         1 UNK         0.3038 
    121 H121       35.0305   32.6795    4.7815 H         1 UNK         0.0769 
    122 H122       36.3122   33.2814    2.7148 H         1 UNK         0.0811 
    123 H123       34.7800   34.1340    2.7836 H         1 UNK         0.0811 
    124 H124       34.9713   32.7441    1.7128 H         1 UNK         0.0811 
    125 H125       33.9742   29.9637    2.7848 H         1 UNK         0.3204 
    126 H126       36.4632   28.5482    2.7129 H         1 UNK         0.0748 
    127 H127       35.0459   26.6168    2.0483 H         1 UNK         0.0771 
    128 H128       33.5971   27.5031    2.4872 H         1 UNK         0.0771 
    129 H129       34.5973   28.0592    1.1514 H         1 UNK         0.0771 
    130 H130       34.2118   29.0487    5.3475 H         1 UNK         0.2980 
    131 H131       35.3417   26.8231    6.9289 H         1 UNK         0.0545 
    132 H132       36.6079   29.8658    6.0735 H         1 UNK         0.3459 
    133 H133       37.5159   30.1029    7.5448 H         1 UNK         0.3459 
    134 H134       33.2432   28.8954    7.7134 H         1 UNK         0.0616 
    135 H135       33.8282   27.6225    8.7494 H         1 UNK         0.0616 
    136 H136       30.5014   28.1025    7.2645 H         1 UNK         0.0634 
    137 H137       31.6048   28.7164    6.0575 H         1 UNK         0.0634 
@<TRIPOS>BOND
     1    1    2 1    
     2    1   72 1    
     3    1   73 1    
     4    1   74 1    
     5    2    3 2    
     6    2    4 am   BACKBONE|DICT|INTERRES
     7    4    5 1    
     8    4   75 1    
     9    5    6 1    
    10    5   35 1    
    11    5   76 1    
    12    6    7 1    
    13    6   77 1    
    14    6   78 1    
    15    7    8 1    
    16    8    9 1    
    17    8   79 1    
    18    8   80 1    
    19    9   10 ar   
    20    9   14 ar   
    21   10   11 ar   
    22   10   81 1    
    23   11   12 ar   
    24   11   71 1    
    25   12   13 ar   
    26   12   82 1    
    27   13   14 ar   
    28   13   15 1    
    29   14   83 1    
    30   15   16 1    
    31   15   84 1    
    32   15   85 1    
    33   16   17 1    
    34   17   18 1    
    35   17   86 1    
    36   17   87 1    
    37   18   19 1    
    38   18   37 1    
    39   18   88 1    
    40   19   20 am   BACKBONE|DICT|INTERRES
    41   19   89 1    
    42   20   21 2    
    43   20   22 1    
    44   22   23 1    
    45   22   24 1    
    46   22   90 1    
    47   23   91 1    
    48   23   92 1    
    49   23   93 1    
    50   24   25 am   BACKBONE|DICT|INTERRES
    51   24   94 1    
    52   25   26 2    
    53   25   27 1    
    54   27   28 1    
    55   27   29 1    
    56   27   95 1    
    57   28   96 1    
    58   28   97 1    
    59   28   98 1    
    60   29   30 am   BACKBONE|DICT|INTERRES
    61   29   99 1    
    62   30   31 2    
    63   30   32 1    
    64   32   33 1    
    65   32   34 1    
    66   32  100 1    
    67   33  101 1    
    68   33  102 1    
    69   33  103 1    
    70   34   35 am   BACKBONE|DICT|INTERRES
    71   34  104 1    
    72   35   36 2    
    73   37   38 2    
    74   37   39 am   BACKBONE|DICT|INTERRES
    75   39   40 1    
    76   39  105 1    
    77   40   41 1    
    78   40   42 1    
    79   40  106 1    
    80   41  107 1    
    81   41  108 1    
    82   41  109 1    
    83   42   43 2    
    84   42   44 am   BACKBONE|DICT|INTERRES
    85   44   45 1    
    86   44  110 1    
    87   45   46 1    
    88   45   47 1    
    89   45  111 1    
    90   46  112 1    
    91   46  113 1    
    92   46  114 1    
    93   47   48 2    
    94   47   49 am   BACKBONE|DICT|INTERRES
    95   49   50 1    
    96   49  115 1    
    97   50   51 1    
    98   50   52 1    
    99   50  116 1    
   100   51  117 1    
   101   51  118 1    
   102   51  119 1    
   103   52   53 2    
   104   52   54 am   BACKBONE|DICT|INTERRES
   105   54   55 1    
   106   54  120 1    
   107   55   56 1    
   108   55   57 1    
   109   55  121 1    
   110   56  122 1    
   111   56  123 1    
   112   56  124 1    
   113   57   58 2    
   114   57   59 am   BACKBONE|DICT|INTERRES
   115   59   60 1    
   116   59  125 1    
   117   60   61 1    
   118   60   62 1    
   119   60  126 1    
   120   61  127 1    
   121   61  128 1    
   122   61  129 1    
   123   62   63 2    
   124   62   64 am   BACKBONE|DICT|INTERRES
   125   64   65 1    
   126   64  130 1    
   127   65   66 1    
   128   65   69 1    
   129   65  131 1    
   130   66   67 am   BACKBONE|DICT|INTERRES
   131   66   68 2    
   132   67  132 1    
   133   67  133 1    
   134   69   70 1    
   135   69  134 1    
   136   69  135 1    
   137   70   71 1    
   138   71  136 1    
   139   71  137 1    
@<TRIPOS>SUBSTRUCTURE
     1 UNK         1 GROUP             0       ****    0 ROOT    
