@<TRIPOS>MOLECULE
3R136
137   139    1
SMALL
USER_CHARGES


@<TRIPOS>ATOM
      1 CA         27.3238   20.7147    4.8043 C.3       0 UNK        -0.1979 
      2 C          27.4619   21.3544    3.4307 C.2       0 UNK         0.4864 
      3 O          27.4333   22.5807    3.3275 O.2       0 UNK        -0.5359 
      4 N          27.6150   20.5294    2.3847 N.am      1 UNK        -0.4318 
      5 CA         27.7576   20.9177    0.9739 C.3       1 UNK         0.0824 
      6 C6         29.0733   21.6911    0.6650 C.3       12 UNK        -0.0944 
      7 S7         30.5664   20.8081    1.2278 S.3       12 UNK        -0.2672 
      8 C8         31.2620   22.0269    2.3999 C.3       12 UNK         0.0333 
      9 C9         31.9661   23.2378    1.7763 C.ar      12 UNK        -0.0807 
     10 C10        32.6222   24.1264    2.6334 C.ar      12 UNK        -0.0894 
     11 C11        33.3291   25.2227    2.1316 C.ar      12 UNK        -0.0804 
     12 C12        33.3651   25.4449    0.7516 C.ar      12 UNK        -0.0824 
     13 C13        32.7125   24.5703   -0.1238 C.ar      12 UNK        -0.0762 
     14 C14        32.0128   23.4764    0.3948 C.ar      12 UNK        -0.0782 
     15 C15        32.8316   24.7448   -1.6345 C.3       12 UNK         0.0230 
     16 S16        32.2249   26.3508   -2.2399 S.3       12 UNK        -0.2608 
     17 C17        30.4242   26.2249   -1.9708 C.3       12 UNK        -0.0989 
     18 CA         29.8533   27.5435   -1.3924 C.3       5 UNK         0.0716 
     19 N          28.4183   27.6881   -1.6465 N.am      5 UNK        -0.4135 
     20 C          27.8399   28.7925   -2.1427 C.2       4 UNK         0.5031 
     21 O          28.4611   29.7820   -2.5323 O.2       4 UNK        -0.5229 
     22 CA         26.3007   28.8104   -2.2170 C.3       4 UNK         0.0329 
     23 CB         25.8226   28.3002   -3.5860 C.3       4 UNK        -0.2001 
     24 N          25.6650   28.0227   -1.1601 N.am      4 UNK        -0.4303 
     25 C          25.7247   28.3056    0.1491 C.2       3 UNK         0.5044 
     26 O          26.2063   29.3431    0.5999 O.2       3 UNK        -0.5152 
     27 CA         25.1790   27.2480    1.1273 C.3       3 UNK         0.0319 
     28 CB         23.8479   27.7163    1.7370 C.3       3 UNK        -0.2001 
     29 N          24.9985   25.9079    0.5526 N.am      3 UNK        -0.4354 
     30 C          25.9738   25.1356    0.0560 C.2       2 UNK         0.4964 
     31 O          27.1520   25.4926   -0.0578 O.2       2 UNK        -0.5047 
     32 CA         25.5595   23.7522   -0.4476 C.3       2 UNK         0.0288 
     33 CB         25.3657   23.7646   -1.9730 C.3       2 UNK        -0.2113 
     34 N          26.6333   22.8339   -0.0970 N.am      2 UNK        -0.4145 
     35 C          26.4806   21.6372    0.4808 C.2       1 UNK         0.5006 
     36 O          25.3852   21.0924    0.6425 O.2       1 UNK        -0.5103 
     37 C          30.1274   27.6795    0.1141 C.2       5 UNK         0.5055 
     38 O          30.9792   28.4786    0.5070 O.2       5 UNK        -0.5220 
     39 N          29.3690   26.9429    0.9389 N.am      6 UNK        -0.4450 
     40 CA         29.4729   26.9302    2.3988 C.3       6 UNK         0.0367 
     41 CB         28.9243   25.5920    2.9240 C.3       6 UNK        -0.1929 
     42 C          28.7861   28.1498    3.0453 C.2       6 UNK         0.5070 
     43 O          27.9916   27.9962    3.9752 O.2       6 UNK        -0.5237 
     44 N          29.0946   29.3512    2.5441 N.am      7 UNK        -0.4739 
     45 CA         28.5124   30.6297    2.9557 C.3       7 UNK         0.0276 
     46 CB         28.6087   31.6250    1.7837 C.3       7 UNK        -0.1927 
     47 C          29.1459   31.1626    4.2550 C.2       7 UNK         0.5013 
     48 O          29.6867   32.2714    4.2686 O.2       7 UNK        -0.5193 
     49 N          29.0699   30.3500    5.3197 N.am      8 UNK        -0.4253 
     50 CA         29.5162   30.6087    6.6933 C.3       8 UNK         0.0242 
     51 CB         28.5009   31.5298    7.4071 C.3       8 UNK        -0.2000 
     52 C          30.9688   31.1186    6.7559 C.2       8 UNK         0.4948 
     53 O          31.8950   30.3320    6.5524 O.2       8 UNK        -0.5275 
     54 N          31.1371   32.4277    6.9937 N.am      9 UNK        -0.4246 
     55 CA         32.4141   33.1433    7.0596 C.3       9 UNK         0.0261 
     56 CB         32.1481   34.6142    7.4181 C.3       9 UNK        -0.1959 
     57 C          33.2755   33.0492    5.7866 C.2       9 UNK         0.5033 
     58 O          34.4917   33.2191    5.8859 O.2       9 UNK        -0.5390 
     59 N          32.6653   32.7409    4.6304 N.am      10 UNK        -0.4215 
     60 CA         33.3634   32.4730    3.3668 C.3       10 UNK         0.0240 
     61 CB         32.3348   32.2422    2.2512 C.3       10 UNK        -0.1982 
     62 C          34.3415   31.2839    3.4334 C.2       10 UNK         0.4970 
     63 O          35.3172   31.2736    2.6818 O.2       10 UNK        -0.4916 
     64 N          34.0831   30.3266    4.3347 N.am      11 UNK        -0.4279 
     65 CA         34.9892   29.2127    4.6458 C.3       11 UNK         0.1003 
     66 C          36.1606   29.5954    5.5997 C.2       11 UNK         0.5709 
     67 N          36.2447   30.8147    6.1214 N.am      11 UNK        -0.7358 
     68 O          37.0292   28.7666    5.8620 O.2       11 UNK        -0.4999 
     69 C69        34.2126   27.9760    5.1670 C.3       12 UNK        -0.0954 
     70 S70        33.0395   27.3136    3.9377 S.3       12 UNK        -0.2268 
     71 C71        34.1095   26.1175    3.0832 C.3       12 UNK         0.0203 
     72 H72        27.3741   19.6271    4.7557 H         1 UNK         0.0888 
     73 H73        28.1216   21.0619    5.4602 H         1 UNK         0.0888 
     74 H74        26.3694   20.9909    5.2518 H         1 UNK         0.0888 
     75 H75        27.6055   19.5326    2.5479 H         1 UNK         0.3017 
     76 H76        27.7956   19.9829    0.4124 H         1 UNK         0.0873 
     77 H77        29.0549   22.6848    1.1161 H         1 UNK         0.0745 
     78 H78        29.1790   21.8426   -0.4109 H         1 UNK         0.0745 
     79 H79        30.4703   22.3739    3.0657 H         1 UNK         0.0705 
     80 H80        31.9802   21.5003    3.0300 H         1 UNK         0.0705 
     81 H81        32.6054   23.9510    3.7008 H         1 UNK         0.1334 
     82 H82        33.9227   26.2820    0.3541 H         1 UNK         0.1417 
     83 H83        31.5345   22.7972   -0.2947 H         1 UNK         0.1562 
     84 H84        32.3057   23.9500   -2.1660 H         1 UNK         0.0748 
     85 H85        33.8825   24.6475   -1.9104 H         1 UNK         0.0748 
     86 H86        30.1819   25.3671   -1.3400 H         1 UNK         0.0940 
     87 H87        29.9718   26.0177   -2.9420 H         1 UNK         0.0940 
     88 H88        30.3780   28.3679   -1.8806 H         1 UNK         0.0703 
     89 H89        27.8252   26.9353   -1.3165 H         1 UNK         0.3081 
     90 H90        25.9768   29.8472   -2.1038 H         1 UNK         0.0719 
     91 H91        26.2634   28.8846   -4.3950 H         1 UNK         0.0809 
     92 H92        26.0988   27.2576   -3.7495 H         1 UNK         0.0809 
     93 H93        24.7398   28.3811   -3.6841 H         1 UNK         0.0809 
     94 H94        25.2216   27.1597   -1.4372 H         1 UNK         0.2990 
     95 H95        25.9099   27.1604    1.9342 H         1 UNK         0.0690 
     96 H96        23.9557   28.6959    2.2053 H         1 UNK         0.0788 
     97 H97        23.5004   27.0293    2.5089 H         1 UNK         0.0788 
     98 H98        23.0653   27.8004    0.9819 H         1 UNK         0.0788 
     99 H99        24.0582   25.5390    0.5795 H         1 UNK         0.2993 
    100 H100       24.6277   23.4567    0.0403 H         1 UNK         0.0949 
    101 H101       25.0976   22.7748   -2.3431 H         1 UNK         0.0767 
    102 H102       24.5645   24.4461   -2.2616 H         1 UNK         0.0767 
    103 H103       26.2705   24.0813   -2.4941 H         1 UNK         0.0767 
    104 H104       27.5557   23.2466   -0.1336 H         1 UNK         0.3013 
    105 H105       28.6388   26.3527    0.5472 H         1 UNK         0.3121 
    106 H106       30.5284   26.9773    2.6652 H         1 UNK         0.0774 
    107 H107       29.0524   25.5115    4.0040 H         1 UNK         0.0815 
    108 H108       27.8606   25.4775    2.7120 H         1 UNK         0.0815 
    109 H109       29.4463   24.7469    2.4766 H         1 UNK         0.0815 
    110 H110       29.7920   29.3771    1.8063 H         1 UNK         0.2987 
    111 H111       27.4506   30.4762    3.1619 H         1 UNK         0.0949 
    112 H112       28.1820   32.5919    2.0534 H         1 UNK         0.0806 
    113 H113       29.6381   31.7955    1.4738 H         1 UNK         0.0806 
    114 H114       28.0600   31.2642    0.9139 H         1 UNK         0.0806 
    115 H115       28.6480   29.4398    5.1554 H         1 UNK         0.3010 
    116 H116       29.5107   29.6473    7.2093 H         1 UNK         0.0829 
    117 H117       28.3709   32.4828    6.8927 H         1 UNK         0.0813 
    118 H118       27.5207   31.0557    7.4624 H         1 UNK         0.0813 
    119 H119       28.8084   31.7401    8.4326 H         1 UNK         0.0813 
    120 H120       30.3050   32.9894    7.1023 H         1 UNK         0.3038 
    121 H121       32.9932   32.6928    7.8683 H         1 UNK         0.0769 
    122 H122       31.5427   35.1111    6.6587 H         1 UNK         0.0811 
    123 H123       33.0826   35.1706    7.5049 H         1 UNK         0.0811 
    124 H124       31.6313   34.7043    8.3738 H         1 UNK         0.0811 
    125 H125       31.6555   32.6213    4.6289 H         1 UNK         0.3204 
    126 H126       33.9450   33.3635    3.1200 H         1 UNK         0.0748 
    127 H127       32.8257   32.1258    1.2840 H         1 UNK         0.0771 
    128 H128       31.7530   31.3371    2.4304 H         1 UNK         0.0771 
    129 H129       31.6437   33.0812    2.1666 H         1 UNK         0.0771 
    130 H130       33.2694   30.4099    4.9339 H         1 UNK         0.2980 
    131 H131       35.4743   28.9112    3.7156 H         1 UNK         0.0545 
    132 H132       37.0189   31.0307    6.7286 H         1 UNK         0.3459 
    133 H133       35.5591   31.5321    5.9124 H         1 UNK         0.3459 
    134 H134       33.6528   28.2341    6.0674 H         1 UNK         0.0616 
    135 H135       34.8957   27.1767    5.4598 H         1 UNK         0.0616 
    136 H136       34.8902   26.6587    2.5465 H         1 UNK         0.0634 
    137 H137       34.6185   25.4936    3.8194 H         1 UNK         0.0634 
@<TRIPOS>BOND
     1    1    2 1    
     2    1   72 1    
     3    1   73 1    
     4    1   74 1    
     5    2    3 2    
     6    2    4 am   BACKBONE|DICT|INTERRES
     7    4    5 1    
     8    4   75 1    
     9    5    6 1    
    10    5   35 1    
    11    5   76 1    
    12    6    7 1    
    13    6   77 1    
    14    6   78 1    
    15    7    8 1    
    16    8    9 1    
    17    8   79 1    
    18    8   80 1    
    19    9   10 ar   
    20    9   14 ar   
    21   10   11 ar   
    22   10   81 1    
    23   11   12 ar   
    24   11   71 1    
    25   12   13 ar   
    26   12   82 1    
    27   13   14 ar   
    28   13   15 1    
    29   14   83 1    
    30   15   16 1    
    31   15   84 1    
    32   15   85 1    
    33   16   17 1    
    34   17   18 1    
    35   17   86 1    
    36   17   87 1    
    37   18   19 1    
    38   18   37 1    
    39   18   88 1    
    40   19   20 am   BACKBONE|DICT|INTERRES
    41   19   89 1    
    42   20   21 2    
    43   20   22 1    
    44   22   23 1    
    45   22   24 1    
    46   22   90 1    
    47   23   91 1    
    48   23   92 1    
    49   23   93 1    
    50   24   25 am   BACKBONE|DICT|INTERRES
    51   24   94 1    
    52   25   26 2    
    53   25   27 1    
    54   27   28 1    
    55   27   29 1    
    56   27   95 1    
    57   28   96 1    
    58   28   97 1    
    59   28   98 1    
    60   29   30 am   BACKBONE|DICT|INTERRES
    61   29   99 1    
    62   30   31 2    
    63   30   32 1    
    64   32   33 1    
    65   32   34 1    
    66   32  100 1    
    67   33  101 1    
    68   33  102 1    
    69   33  103 1    
    70   34   35 am   BACKBONE|DICT|INTERRES
    71   34  104 1    
    72   35   36 2    
    73   37   38 2    
    74   37   39 am   BACKBONE|DICT|INTERRES
    75   39   40 1    
    76   39  105 1    
    77   40   41 1    
    78   40   42 1    
    79   40  106 1    
    80   41  107 1    
    81   41  108 1    
    82   41  109 1    
    83   42   43 2    
    84   42   44 am   BACKBONE|DICT|INTERRES
    85   44   45 1    
    86   44  110 1    
    87   45   46 1    
    88   45   47 1    
    89   45  111 1    
    90   46  112 1    
    91   46  113 1    
    92   46  114 1    
    93   47   48 2    
    94   47   49 am   BACKBONE|DICT|INTERRES
    95   49   50 1    
    96   49  115 1    
    97   50   51 1    
    98   50   52 1    
    99   50  116 1    
   100   51  117 1    
   101   51  118 1    
   102   51  119 1    
   103   52   53 2    
   104   52   54 am   BACKBONE|DICT|INTERRES
   105   54   55 1    
   106   54  120 1    
   107   55   56 1    
   108   55   57 1    
   109   55  121 1    
   110   56  122 1    
   111   56  123 1    
   112   56  124 1    
   113   57   58 2    
   114   57   59 am   BACKBONE|DICT|INTERRES
   115   59   60 1    
   116   59  125 1    
   117   60   61 1    
   118   60   62 1    
   119   60  126 1    
   120   61  127 1    
   121   61  128 1    
   122   61  129 1    
   123   62   63 2    
   124   62   64 am   BACKBONE|DICT|INTERRES
   125   64   65 1    
   126   64  130 1    
   127   65   66 1    
   128   65   69 1    
   129   65  131 1    
   130   66   67 am   BACKBONE|DICT|INTERRES
   131   66   68 2    
   132   67  132 1    
   133   67  133 1    
   134   69   70 1    
   135   69  134 1    
   136   69  135 1    
   137   70   71 1    
   138   71  136 1    
   139   71  137 1    
@<TRIPOS>SUBSTRUCTURE
     1 UNK         1 GROUP             0       ****    0 ROOT    
