@<TRIPOS>MOLECULE
3R136
137   139    1
SMALL
USER_CHARGES


@<TRIPOS>ATOM
      1 CA         28.1273   28.1167   -1.7525 C.3       0 UNK        -0.1979 
      2 C          28.3469   26.7718   -1.0795 C.2       0 UNK         0.4864 
      3 O          27.4592   26.2974   -0.3672 O.2       0 UNK        -0.5359 
      4 N          29.5095   26.1459   -1.3070 N.am      1 UNK        -0.4318 
      5 CA         29.9934   24.8885   -0.7085 C.3       1 UNK         0.0824 
      6 C6         31.5262   24.7455   -0.9142 C.3       12 UNK        -0.0944 
      7 S7         32.4736   25.9730    0.0455 S.3       12 UNK        -0.2672 
      8 C8         33.2624   24.9171    1.3048 C.3       12 UNK         0.0333 
      9 C9         32.3277   24.6003    2.4658 C.ar      12 UNK        -0.0807 
     10 C10        32.4892   25.2650    3.6841 C.ar      12 UNK        -0.0894 
     11 C11        31.6663   24.9691    4.7735 C.ar      12 UNK        -0.0804 
     12 C12        30.6624   24.0063    4.6328 C.ar      12 UNK        -0.0824 
     13 C13        30.4887   23.3290    3.4208 C.ar      12 UNK        -0.0762 
     14 C14        31.3339   23.6216    2.3462 C.ar      12 UNK        -0.0782 
     15 C15        29.4200   22.2491    3.2850 C.3       12 UNK         0.0230 
     16 S16        27.8973   22.8561    2.4838 S.3       12 UNK        -0.2608 
     17 C17        27.3101   24.0837    3.6988 C.3       12 UNK        -0.0989 
     18 CA         27.5116   25.5212    3.1487 C.3       5 UNK         0.0716 
     19 N          26.4832   25.9200    2.1760 N.am      5 UNK        -0.4135 
     20 C          25.1988   26.2011    2.4493 C.2       4 UNK         0.5031 
     21 O          24.6713   26.0249    3.5481 O.2       4 UNK        -0.5229 
     22 CA         24.3636   26.8227    1.3239 C.3       4 UNK         0.0329 
     23 CB         24.6787   28.3234    1.1896 C.3       4 UNK        -0.2001 
     24 N          24.5854   26.1636    0.0363 N.am      4 UNK        -0.4303 
     25 C          23.6078   25.7090   -0.7593 C.2       3 UNK         0.5044 
     26 O          22.4093   25.7594   -0.4785 O.2       3 UNK        -0.5152 
     27 CA         24.0246   25.1142   -2.1149 C.3       3 UNK         0.0319 
     28 CB         24.0809   26.2171   -3.1848 C.3       3 UNK        -0.2001 
     29 N          25.3080   24.4118   -2.0835 N.am      3 UNK        -0.4354 
     30 C          25.5237   23.2352   -1.4759 C.2       2 UNK         0.4964 
     31 O          24.6679   22.6131   -0.8473 O.2       2 UNK        -0.5047 
     32 CA         26.9417   22.6687   -1.5936 C.3       2 UNK         0.0288 
     33 CB         27.1665   22.0697   -2.9983 C.3       2 UNK        -0.2113 
     34 N          27.9017   23.7277   -1.2887 N.am      2 UNK        -0.4145 
     35 C          29.2250   23.6167   -1.1594 C.2       1 UNK         0.5006 
     36 O          29.8338   22.5636   -1.3582 O.2       1 UNK        -0.5103 
     37 C          27.6977   26.6076    4.2328 C.2       5 UNK         0.5055 
     38 O          27.7250   26.3185    5.4299 O.2       5 UNK        -0.5220 
     39 N          27.8080   27.8538    3.7582 N.am      6 UNK        -0.4450 
     40 CA         28.0451   29.0707    4.5292 C.3       6 UNK         0.0367 
     41 CB         26.7227   29.5876    5.1296 C.3       6 UNK        -0.1929 
     42 C          28.7304   30.0889    3.6046 C.2       6 UNK         0.5070 
     43 O          28.3363   31.2545    3.5567 O.2       6 UNK        -0.5237 
     44 N          29.7198   29.6111    2.8365 N.am      7 UNK        -0.4739 
     45 CA         30.3963   30.3059    1.7350 C.3       7 UNK         0.0276 
     46 CB         31.0679   29.2440    0.8455 C.3       7 UNK        -0.1927 
     47 C          31.3814   31.4101    2.1770 C.2       7 UNK         0.5013 
     48 O          32.4993   31.4773    1.6606 O.2       7 UNK        -0.5193 
     49 N          30.9508   32.2632    3.1165 N.am      8 UNK        -0.4253 
     50 CA         31.6712   33.4118    3.6770 C.3       8 UNK         0.0242 
     51 CB         31.6544   34.5839    2.6691 C.3       8 UNK        -0.2000 
     52 C          33.0786   33.0189    4.1671 C.2       8 UNK         0.4948 
     53 O          33.1903   32.1278    5.0103 O.2       8 UNK        -0.5275 
     54 N          34.1248   33.6388    3.6053 N.am      9 UNK        -0.4246 
     55 CA         35.5348   33.3839    3.9136 C.3       9 UNK         0.0261 
     56 CB         36.4042   34.4009    3.1559 C.3       9 UNK        -0.1959 
     57 C          36.0166   31.9476    3.6270 C.2       9 UNK         0.5033 
     58 O          37.0210   31.5380    4.2110 O.2       9 UNK        -0.5390 
     59 N          35.3118   31.2022    2.7614 N.am      10 UNK        -0.4215 
     60 CA         35.6055   29.7953    2.4727 C.3       10 UNK         0.0240 
     61 CB         35.1280   29.4484    1.0520 C.3       10 UNK        -0.1982 
     62 C          35.0054   28.8247    3.5082 C.2       10 UNK         0.4970 
     63 O          35.3321   27.6386    3.4505 O.2       10 UNK        -0.4916 
     64 N          34.1549   29.3171    4.4206 N.am      11 UNK        -0.4279 
     65 CA         33.5078   28.5305    5.4795 C.3       11 UNK         0.1003 
     66 C          33.7780   29.1054    6.8972 C.2       11 UNK         0.5709 
     67 N          33.8453   30.4176    7.0801 N.am      11 UNK        -0.7358 
     68 O          33.9679   28.3464    7.8446 O.2       11 UNK        -0.4999 
     69 C69        31.9974   28.3535    5.1658 C.3       12 UNK        -0.0954 
     70 S70        31.0639   27.2471    6.2807 S.3       12 UNK        -0.2268 
     71 C71        31.9037   25.6384    6.1203 C.3       12 UNK         0.0203 
     72 H72        27.9428   28.8836   -1.0008 H         1 UNK         0.0888 
     73 H73        28.9897   28.4225   -2.3444 H         1 UNK         0.0888 
     74 H74        27.2607   28.0695   -2.4110 H         1 UNK         0.0888 
     75 H75        30.1766   26.5908   -1.9212 H         1 UNK         0.3017 
     76 H76        29.8060   24.9604    0.3646 H         1 UNK         0.0873 
     77 H77        31.7783   24.8620   -1.9696 H         1 UNK         0.0745 
     78 H78        31.8871   23.7530   -0.6439 H         1 UNK         0.0745 
     79 H79        33.6284   23.9941    0.8531 H         1 UNK         0.0705 
     80 H80        34.1489   25.4373    1.6719 H         1 UNK         0.0705 
     81 H81        33.2741   26.0002    3.7900 H         1 UNK         0.1334 
     82 H82        30.0308   23.7697    5.4781 H         1 UNK         0.1417 
     83 H83        31.2164   23.0779    1.4201 H         1 UNK         0.1562 
     84 H84        29.1715   21.8315    4.2620 H         1 UNK         0.0748 
     85 H85        29.8151   21.4193    2.6970 H         1 UNK         0.0748 
     86 H86        27.8401   23.9258    4.6377 H         1 UNK         0.0940 
     87 H87        26.2612   23.8901    3.9262 H         1 UNK         0.0940 
     88 H88        28.4574   25.5354    2.6033 H         1 UNK         0.0703 
     89 H89        26.8269   26.0857    1.2312 H         1 UNK         0.3081 
     90 H90        23.3179   26.7261    1.6242 H         1 UNK         0.0719 
     91 H91        24.0112   28.8019    0.4728 H         1 UNK         0.0809 
     92 H92        25.7028   28.4957    0.8564 H         1 UNK         0.0809 
     93 H93        24.5520   28.8383    2.1431 H         1 UNK         0.0809 
     94 H94        25.5475   26.0866   -0.2763 H         1 UNK         0.2990 
     95 H95        23.2560   24.3958   -2.4085 H         1 UNK         0.0690 
     96 H96        24.2905   25.8036   -4.1716 H         1 UNK         0.0788 
     97 H97        24.8472   26.9602   -2.9606 H         1 UNK         0.0788 
     98 H98        23.1275   26.7432   -3.2526 H         1 UNK         0.0788 
     99 H99        26.0605   24.8265   -2.6133 H         1 UNK         0.2993 
    100 H100       27.0535   21.8812   -0.8452 H         1 UNK         0.0949 
    101 H101       28.1113   21.5304   -3.0606 H         1 UNK         0.0767 
    102 H102       26.3793   21.3570   -3.2488 H         1 UNK         0.0767 
    103 H103       27.1700   22.8386   -3.7715 H         1 UNK         0.0767 
    104 H104       27.5066   24.6256   -1.0176 H         1 UNK         0.3013 
    105 H105       27.7561   27.9883    2.7578 H         1 UNK         0.3121 
    106 H106       28.7383   28.8544    5.3436 H         1 UNK         0.0774 
    107 H107       26.8874   30.4892    5.7208 H         1 UNK         0.0815 
    108 H108       25.9974   29.8315    4.3526 H         1 UNK         0.0815 
    109 H109       26.2699   28.8475    5.7894 H         1 UNK         0.0815 
    110 H110       30.0071   28.6554    2.9898 H         1 UNK         0.2987 
    111 H111       29.6326   30.8043    1.1341 H         1 UNK         0.0949 
    112 H112       31.8419   28.7009    1.3888 H         1 UNK         0.0806 
    113 H113       30.3463   28.5145    0.4802 H         1 UNK         0.0806 
    114 H114       31.5364   29.6957   -0.0299 H         1 UNK         0.0806 
    115 H115       30.0118   32.1025    3.4734 H         1 UNK         0.3010 
    116 H116       31.1182   33.7246    4.5638 H         1 UNK         0.0829 
    117 H117       30.6311   34.8570    2.4105 H         1 UNK         0.0813 
    118 H118       32.1210   35.4769    3.0874 H         1 UNK         0.0813 
    119 H119       32.1686   34.3364    1.7393 H         1 UNK         0.0813 
    120 H120       33.9369   34.3329    2.8964 H         1 UNK         0.3038 
    121 H121       35.6668   33.5539    4.9843 H         1 UNK         0.0769 
    122 H122       37.4611   34.2624    3.3888 H         1 UNK         0.0811 
    123 H123       36.1478   35.4250    3.4276 H         1 UNK         0.0811 
    124 H124       36.2934   34.3003    2.0754 H         1 UNK         0.0811 
    125 H125       34.4684   31.5829    2.3411 H         1 UNK         0.3204 
    126 H126       36.6878   29.6509    2.4950 H         1 UNK         0.0748 
    127 H127       35.4066   28.4282    0.7842 H         1 UNK         0.0771 
    128 H128       34.0459   29.5194    0.9571 H         1 UNK         0.0771 
    129 H129       35.5740   30.1106    0.3099 H         1 UNK         0.0771 
    130 H130       33.9576   30.3111    4.4317 H         1 UNK         0.2980 
    131 H131       33.9615   27.5406    5.4900 H         1 UNK         0.0545 
    132 H132       33.6365   31.0686    6.3246 H         1 UNK         0.3459 
    133 H133       34.0383   30.7720    8.0027 H         1 UNK         0.3459 
    134 H134       31.8717   27.9814    4.1488 H         1 UNK         0.0616 
    135 H135       31.5061   29.3280    5.1833 H         1 UNK         0.0616 
    136 H136       32.9714   25.7431    6.3104 H         1 UNK         0.0634 
    137 H137       31.5340   24.9909    6.9168 H         1 UNK         0.0634 
@<TRIPOS>BOND
     1    1    2 1    
     2    1   72 1    
     3    1   73 1    
     4    1   74 1    
     5    2    3 2    
     6    2    4 am   BACKBONE|DICT|INTERRES
     7    4    5 1    
     8    4   75 1    
     9    5    6 1    
    10    5   35 1    
    11    5   76 1    
    12    6    7 1    
    13    6   77 1    
    14    6   78 1    
    15    7    8 1    
    16    8    9 1    
    17    8   79 1    
    18    8   80 1    
    19    9   10 ar   
    20    9   14 ar   
    21   10   11 ar   
    22   10   81 1    
    23   11   12 ar   
    24   11   71 1    
    25   12   13 ar   
    26   12   82 1    
    27   13   14 ar   
    28   13   15 1    
    29   14   83 1    
    30   15   16 1    
    31   15   84 1    
    32   15   85 1    
    33   16   17 1    
    34   17   18 1    
    35   17   86 1    
    36   17   87 1    
    37   18   19 1    
    38   18   37 1    
    39   18   88 1    
    40   19   20 am   BACKBONE|DICT|INTERRES
    41   19   89 1    
    42   20   21 2    
    43   20   22 1    
    44   22   23 1    
    45   22   24 1    
    46   22   90 1    
    47   23   91 1    
    48   23   92 1    
    49   23   93 1    
    50   24   25 am   BACKBONE|DICT|INTERRES
    51   24   94 1    
    52   25   26 2    
    53   25   27 1    
    54   27   28 1    
    55   27   29 1    
    56   27   95 1    
    57   28   96 1    
    58   28   97 1    
    59   28   98 1    
    60   29   30 am   BACKBONE|DICT|INTERRES
    61   29   99 1    
    62   30   31 2    
    63   30   32 1    
    64   32   33 1    
    65   32   34 1    
    66   32  100 1    
    67   33  101 1    
    68   33  102 1    
    69   33  103 1    
    70   34   35 am   BACKBONE|DICT|INTERRES
    71   34  104 1    
    72   35   36 2    
    73   37   38 2    
    74   37   39 am   BACKBONE|DICT|INTERRES
    75   39   40 1    
    76   39  105 1    
    77   40   41 1    
    78   40   42 1    
    79   40  106 1    
    80   41  107 1    
    81   41  108 1    
    82   41  109 1    
    83   42   43 2    
    84   42   44 am   BACKBONE|DICT|INTERRES
    85   44   45 1    
    86   44  110 1    
    87   45   46 1    
    88   45   47 1    
    89   45  111 1    
    90   46  112 1    
    91   46  113 1    
    92   46  114 1    
    93   47   48 2    
    94   47   49 am   BACKBONE|DICT|INTERRES
    95   49   50 1    
    96   49  115 1    
    97   50   51 1    
    98   50   52 1    
    99   50  116 1    
   100   51  117 1    
   101   51  118 1    
   102   51  119 1    
   103   52   53 2    
   104   52   54 am   BACKBONE|DICT|INTERRES
   105   54   55 1    
   106   54  120 1    
   107   55   56 1    
   108   55   57 1    
   109   55  121 1    
   110   56  122 1    
   111   56  123 1    
   112   56  124 1    
   113   57   58 2    
   114   57   59 am   BACKBONE|DICT|INTERRES
   115   59   60 1    
   116   59  125 1    
   117   60   61 1    
   118   60   62 1    
   119   60  126 1    
   120   61  127 1    
   121   61  128 1    
   122   61  129 1    
   123   62   63 2    
   124   62   64 am   BACKBONE|DICT|INTERRES
   125   64   65 1    
   126   64  130 1    
   127   65   66 1    
   128   65   69 1    
   129   65  131 1    
   130   66   67 am   BACKBONE|DICT|INTERRES
   131   66   68 2    
   132   67  132 1    
   133   67  133 1    
   134   69   70 1    
   135   69  134 1    
   136   69  135 1    
   137   70   71 1    
   138   71  136 1    
   139   71  137 1    
@<TRIPOS>SUBSTRUCTURE
     1 UNK         1 GROUP             0       ****    0 ROOT    
