@<TRIPOS>MOLECULE
3R136
137   139    1
SMALL
USER_CHARGES


@<TRIPOS>ATOM
      1 CA         26.0760   23.3976    2.7438 C.3       0 UNK        -0.1979 
      2 C          26.7164   22.8499    1.4792 C.2       0 UNK         0.4864 
      3 O          26.7225   23.5343    0.4552 O.2       0 UNK        -0.5359 
      4 N          27.2293   21.6131    1.5422 N.am      1 UNK        -0.4318 
      5 CA         27.8915   20.8347    0.4783 C.3       1 UNK         0.0824 
      6 C6         29.1889   21.4713   -0.0950 C.3       12 UNK        -0.0944 
      7 S7         30.3627   22.0083    1.1991 S.3       12 UNK        -0.2672 
      8 C8         30.4949   23.7833    0.8177 C.3       12 UNK         0.0333 
      9 C9         30.7549   24.6163    2.0615 C.ar      12 UNK        -0.0807 
     10 C10        32.0164   25.1625    2.3141 C.ar      12 UNK        -0.0894 
     11 C11        32.2121   26.0102    3.4105 C.ar      12 UNK        -0.0804 
     12 C12        31.1327   26.3235    4.2430 C.ar      12 UNK        -0.0824 
     13 C13        29.8652   25.7913    3.9898 C.ar      12 UNK        -0.0762 
     14 C14        29.6963   24.9054    2.9241 C.ar      12 UNK        -0.0782 
     15 C15        28.6671   26.2150    4.8299 C.3       12 UNK         0.0230 
     16 S16        27.3134   26.9227    3.8220 S.3       12 UNK        -0.2608 
     17 C17        28.1685   28.1672    2.7924 C.3       12 UNK        -0.0989 
     18 CA         28.3535   27.6966    1.3270 C.3       5 UNK         0.0716 
     19 N          27.0812   27.4695    0.6359 N.am      5 UNK        -0.4135 
     20 C          26.9664   26.8096   -0.5241 C.2       4 UNK         0.5031 
     21 O          27.9080   26.2575   -1.0976 O.2       4 UNK        -0.5229 
     22 CA         25.5638   26.7373   -1.1369 C.3       4 UNK         0.0329 
     23 CB         25.6021   26.8427   -2.6757 C.3       4 UNK        -0.2001 
     24 N          24.9365   25.4819   -0.7325 N.am      4 UNK        -0.4303 
     25 C          23.6163   25.2530   -0.7341 C.2       3 UNK         0.5044 
     26 O          22.7818   26.1036   -1.0510 O.2       3 UNK        -0.5152 
     27 CA         23.1492   23.8439   -0.3084 C.3       3 UNK         0.0319 
     28 CB         21.6655   23.5729   -0.6387 C.3       3 UNK        -0.2001 
     29 N          24.0002   22.7661   -0.8283 N.am      3 UNK        -0.4354 
     30 C          24.2701   22.4694   -2.1106 C.2       2 UNK         0.4964 
     31 O          23.7643   23.0464   -3.0741 O.2       2 UNK        -0.5047 
     32 CA         25.3073   21.3533   -2.3399 C.3       2 UNK         0.0288 
     33 CB         25.9499   21.4028   -3.7397 C.3       2 UNK        -0.2113 
     34 N          26.3503   21.4446   -1.3199 N.am      2 UNK        -0.4145 
     35 C          26.9192   20.4360   -0.6536 C.2       1 UNK         0.5006 
     36 O          26.6888   19.2463   -0.8760 O.2       1 UNK        -0.5103 
     37 C          29.2332   28.6876    0.5447 C.2       5 UNK         0.5055 
     38 O          28.7328   29.7142    0.0781 O.2       5 UNK        -0.5220 
     39 N          30.5349   28.3890    0.4531 N.am      6 UNK        -0.4450 
     40 CA         31.5413   29.1740   -0.2694 C.3       6 UNK         0.0367 
     41 CB         32.6913   28.2320   -0.6753 C.3       6 UNK        -0.1929 
     42 C          32.0318   30.3907    0.5436 C.2       6 UNK         0.5070 
     43 O          33.2396   30.5756    0.6933 O.2       6 UNK        -0.5237 
     44 N          31.0782   31.1848    1.0546 N.am      7 UNK        -0.4739 
     45 CA         31.2314   32.2741    2.0266 C.3       7 UNK         0.0276 
     46 CB         32.1268   33.4095    1.4846 C.3       7 UNK        -0.1927 
     47 C          31.7194   31.7236    3.3771 C.2       7 UNK         0.5013 
     48 O          32.9045   31.8293    3.6980 O.2       7 UNK        -0.5193 
     49 N          30.7865   31.1337    4.1416 N.am      8 UNK        -0.4253 
     50 CA         31.0185   30.4458    5.4219 C.3       8 UNK         0.0242 
     51 CB         29.6705   30.0145    6.0230 C.3       8 UNK        -0.2000 
     52 C          31.8167   31.2510    6.4626 C.2       8 UNK         0.4948 
     53 O          32.6066   30.6651    7.2021 O.2       8 UNK        -0.5275 
     54 N          31.6281   32.5777    6.4757 N.am      9 UNK        -0.4246 
     55 CA         32.3738   33.5192    7.3142 C.3       9 UNK         0.0261 
     56 CB         31.7129   34.9046    7.2231 C.3       9 UNK        -0.1959 
     57 C          33.8729   33.6156    6.9673 C.2       9 UNK         0.5033 
     58 O          34.6561   34.0051    7.8352 O.2       9 UNK        -0.5390 
     59 N          34.2463   33.2740    5.7261 N.am      10 UNK        -0.4215 
     60 CA         35.6260   33.2448    5.2500 C.3       10 UNK         0.0240 
     61 CB         35.6974   33.8150    3.8224 C.3       10 UNK        -0.1982 
     62 C          36.1903   31.8189    5.3017 C.2       10 UNK         0.4970 
     63 O          37.2743   31.6323    5.8565 O.2       10 UNK        -0.4916 
     64 N          35.4728   30.8466    4.7176 N.am      11 UNK        -0.4279 
     65 CA         35.9378   29.4524    4.6164 C.3       11 UNK         0.1003 
     66 C          35.7948   28.6001    5.9098 C.2       11 UNK         0.5709 
     67 N          35.0086   29.0030    6.9000 N.am      11 UNK        -0.7358 
     68 O          36.4303   27.5546    6.0238 O.2       11 UNK        -0.4999 
     69 C69        35.3970   28.7334    3.3526 C.3       12 UNK        -0.0954 
     70 S70        33.6051   28.3924    3.3549 S.3       12 UNK        -0.2268 
     71 C71        33.5841   26.6046    3.6861 C.3       12 UNK         0.0203 
     72 H72        25.0717   22.9932    2.8658 H         1 UNK         0.0888 
     73 H73        26.6633   23.1432    3.6260 H         1 UNK         0.0888 
     74 H74        25.9990   24.4830    2.6908 H         1 UNK         0.0888 
     75 H75        27.1578   21.1191    2.4212 H         1 UNK         0.3017 
     76 H76        28.1888   19.9021    0.9611 H         1 UNK         0.0873 
     77 H77        28.9506   22.3112   -0.7494 H         1 UNK         0.0745 
     78 H78        29.7074   20.7481   -0.7273 H         1 UNK         0.0745 
     79 H79        31.2815   23.9323    0.0765 H         1 UNK         0.0705 
     80 H80        29.5723   24.1433    0.3586 H         1 UNK         0.0705 
     81 H81        32.8402   24.9410    1.6491 H         1 UNK         0.1334 
     82 H82        31.2795   27.0034    5.0712 H         1 UNK         0.1417 
     83 H83        28.7166   24.5014    2.7181 H         1 UNK         0.1562 
     84 H84        28.9615   26.9439    5.5860 H         1 UNK         0.0748 
     85 H85        28.2877   25.3477    5.3716 H         1 UNK         0.0748 
     86 H86        29.1363   28.3945    3.2426 H         1 UNK         0.0940 
     87 H87        27.5951   29.0955    2.8281 H         1 UNK         0.0940 
     88 H88        28.8771   26.7434    1.3297 H         1 UNK         0.0703 
     89 H89        26.2645   27.8942    1.0492 H         1 UNK         0.3081 
     90 H90        24.9791   27.5746   -0.7494 H         1 UNK         0.0719 
     91 H91        26.1321   27.7418   -2.9925 H         1 UNK         0.0809 
     92 H92        26.1083   25.9873   -3.1251 H         1 UNK         0.0809 
     93 H93        24.5982   26.8934   -3.0973 H         1 UNK         0.0809 
     94 H94        25.5745   24.7554   -0.4097 H         1 UNK         0.2990 
     95 H95        23.2523   23.8138    0.7773 H         1 UNK         0.0690 
     96 H96        21.3582   22.5829   -0.3017 H         1 UNK         0.0788 
     97 H97        21.4709   23.6383   -1.7097 H         1 UNK         0.0788 
     98 H98        21.0157   24.2971   -0.1457 H         1 UNK         0.0788 
     99 H99        24.4779   22.2219   -0.1248 H         1 UNK         0.2993 
    100 H100       24.7731   20.4064   -2.2349 H         1 UNK         0.0949 
    101 H101       26.4665   22.3483   -3.9096 H         1 UNK         0.0767 
    102 H102       26.6725   20.5974   -3.8717 H         1 UNK         0.0767 
    103 H103       25.1977   21.2930   -4.5219 H         1 UNK         0.0767 
    104 H104       26.5729   22.3831   -0.9910 H         1 UNK         0.3013 
    105 H105       30.8754   27.5594    0.9191 H         1 UNK         0.3121 
    106 H106       31.0920   29.5629   -1.1857 H         1 UNK         0.0774 
    107 H107       33.2010   27.8202    0.1971 H         1 UNK         0.0815 
    108 H108       32.3299   27.3990   -1.2785 H         1 UNK         0.0815 
    109 H109       33.4382   28.7594   -1.2703 H         1 UNK         0.0815 
    110 H110       30.1217   30.9300    0.8248 H         1 UNK         0.2987 
    111 H111       30.2376   32.6964    2.1850 H         1 UNK         0.0949 
    112 H112       31.7490   33.7942    0.5376 H         1 UNK         0.0806 
    113 H113       32.1580   34.2441    2.1860 H         1 UNK         0.0806 
    114 H114       33.1565   33.0877    1.3277 H         1 UNK         0.0806 
    115 H115       29.8392   31.1094    3.7943 H         1 UNK         0.3010 
    116 H116       31.5969   29.5477    5.2009 H         1 UNK         0.0829 
    117 H117       29.0409   30.8732    6.2596 H         1 UNK         0.0813 
    118 H118       29.8179   29.4553    6.9482 H         1 UNK         0.0813 
    119 H119       29.1120   29.3705    5.3470 H         1 UNK         0.0813 
    120 H120       30.9560   32.9710    5.8333 H         1 UNK         0.3038 
    121 H121       32.3021   33.1728    8.3475 H         1 UNK         0.0769 
    122 H122       30.6727   34.8716    7.5478 H         1 UNK         0.0811 
    123 H123       31.7372   35.2978    6.2059 H         1 UNK         0.0811 
    124 H124       32.2264   35.6243    7.8623 H         1 UNK         0.0811 
    125 H125       33.5516   32.8995    5.0840 H         1 UNK         0.3204 
    126 H126       36.2522   33.8750    5.8854 H         1 UNK         0.0748 
    127 H127       35.1067   33.2313    3.1155 H         1 UNK         0.0771 
    128 H128       35.3346   34.8425    3.7898 H         1 UNK         0.0771 
    129 H129       36.7255   33.8226    3.4580 H         1 UNK         0.0771 
    130 H130       34.5793   31.0640    4.2839 H         1 UNK         0.2980 
    131 H131       37.0166   29.5074    4.4565 H         1 UNK         0.0545 
    132 H132       34.9444   28.4361    7.7296 H         1 UNK         0.3459 
    133 H133       34.4135   29.8179    6.8107 H         1 UNK         0.3459 
    134 H134       35.9444   27.8036    3.1910 H         1 UNK         0.0616 
    135 H135       35.6070   29.3442    2.4731 H         1 UNK         0.0616 
    136 H136       33.8612   26.4253    4.7258 H         1 UNK         0.0634 
    137 H137       34.3383   26.1108    3.0716 H         1 UNK         0.0634 
@<TRIPOS>BOND
     1    1    2 1    
     2    1   72 1    
     3    1   73 1    
     4    1   74 1    
     5    2    3 2    
     6    2    4 am   BACKBONE|DICT|INTERRES
     7    4    5 1    
     8    4   75 1    
     9    5    6 1    
    10    5   35 1    
    11    5   76 1    
    12    6    7 1    
    13    6   77 1    
    14    6   78 1    
    15    7    8 1    
    16    8    9 1    
    17    8   79 1    
    18    8   80 1    
    19    9   10 ar   
    20    9   14 ar   
    21   10   11 ar   
    22   10   81 1    
    23   11   12 ar   
    24   11   71 1    
    25   12   13 ar   
    26   12   82 1    
    27   13   14 ar   
    28   13   15 1    
    29   14   83 1    
    30   15   16 1    
    31   15   84 1    
    32   15   85 1    
    33   16   17 1    
    34   17   18 1    
    35   17   86 1    
    36   17   87 1    
    37   18   19 1    
    38   18   37 1    
    39   18   88 1    
    40   19   20 am   BACKBONE|DICT|INTERRES
    41   19   89 1    
    42   20   21 2    
    43   20   22 1    
    44   22   23 1    
    45   22   24 1    
    46   22   90 1    
    47   23   91 1    
    48   23   92 1    
    49   23   93 1    
    50   24   25 am   BACKBONE|DICT|INTERRES
    51   24   94 1    
    52   25   26 2    
    53   25   27 1    
    54   27   28 1    
    55   27   29 1    
    56   27   95 1    
    57   28   96 1    
    58   28   97 1    
    59   28   98 1    
    60   29   30 am   BACKBONE|DICT|INTERRES
    61   29   99 1    
    62   30   31 2    
    63   30   32 1    
    64   32   33 1    
    65   32   34 1    
    66   32  100 1    
    67   33  101 1    
    68   33  102 1    
    69   33  103 1    
    70   34   35 am   BACKBONE|DICT|INTERRES
    71   34  104 1    
    72   35   36 2    
    73   37   38 2    
    74   37   39 am   BACKBONE|DICT|INTERRES
    75   39   40 1    
    76   39  105 1    
    77   40   41 1    
    78   40   42 1    
    79   40  106 1    
    80   41  107 1    
    81   41  108 1    
    82   41  109 1    
    83   42   43 2    
    84   42   44 am   BACKBONE|DICT|INTERRES
    85   44   45 1    
    86   44  110 1    
    87   45   46 1    
    88   45   47 1    
    89   45  111 1    
    90   46  112 1    
    91   46  113 1    
    92   46  114 1    
    93   47   48 2    
    94   47   49 am   BACKBONE|DICT|INTERRES
    95   49   50 1    
    96   49  115 1    
    97   50   51 1    
    98   50   52 1    
    99   50  116 1    
   100   51  117 1    
   101   51  118 1    
   102   51  119 1    
   103   52   53 2    
   104   52   54 am   BACKBONE|DICT|INTERRES
   105   54   55 1    
   106   54  120 1    
   107   55   56 1    
   108   55   57 1    
   109   55  121 1    
   110   56  122 1    
   111   56  123 1    
   112   56  124 1    
   113   57   58 2    
   114   57   59 am   BACKBONE|DICT|INTERRES
   115   59   60 1    
   116   59  125 1    
   117   60   61 1    
   118   60   62 1    
   119   60  126 1    
   120   61  127 1    
   121   61  128 1    
   122   61  129 1    
   123   62   63 2    
   124   62   64 am   BACKBONE|DICT|INTERRES
   125   64   65 1    
   126   64  130 1    
   127   65   66 1    
   128   65   69 1    
   129   65  131 1    
   130   66   67 am   BACKBONE|DICT|INTERRES
   131   66   68 2    
   132   67  132 1    
   133   67  133 1    
   134   69   70 1    
   135   69  134 1    
   136   69  135 1    
   137   70   71 1    
   138   71  136 1    
   139   71  137 1    
@<TRIPOS>SUBSTRUCTURE
     1 UNK         1 GROUP             0       ****    0 ROOT    
