@<TRIPOS>MOLECULE
3R136
137   139    1
SMALL
USER_CHARGES


@<TRIPOS>ATOM
      1 CA         27.2295   21.0647    3.3651 C.3       0 UNK        -0.1979 
      2 C          27.5521   20.7268    1.9176 C.2       0 UNK         0.4864 
      3 O          26.7501   20.0705    1.2516 O.2       0 UNK        -0.5359 
      4 N          28.7244   21.1560    1.4303 N.am      1 UNK        -0.4318 
      5 CA         29.2168   20.8734    0.0744 C.3       1 UNK         0.0824 
      6 C6         30.7405   21.1245   -0.0696 C.3       12 UNK        -0.0944 
      7 S7         31.7262   20.2111    1.1684 S.3       12 UNK        -0.2672 
      8 C8         33.0960   21.3709    1.5166 C.3       12 UNK         0.0333 
      9 C9         32.6389   22.7386    2.0187 C.ar      12 UNK        -0.0807 
     10 C10        33.2079   23.9010    1.4871 C.ar      12 UNK        -0.0894 
     11 C11        32.7984   25.1687    1.9157 C.ar      12 UNK        -0.0804 
     12 C12        31.7842   25.2601    2.8781 C.ar      12 UNK        -0.0824 
     13 C13        31.2115   24.1072    3.4220 C.ar      12 UNK        -0.0762 
     14 C14        31.6561   22.8507    3.0062 C.ar      12 UNK        -0.0782 
     15 C15        30.0803   24.2215    4.4267 C.3       12 UNK         0.0230 
     16 S16        28.5028   24.3684    3.5386 S.3       12 UNK        -0.2608 
     17 C17        27.7651   25.8391    4.3177 C.3       12 UNK        -0.0989 
     18 CA         28.4118   27.1762    3.8740 C.3       5 UNK         0.0716 
     19 N          28.5005   27.3085    2.4140 N.am      5 UNK        -0.4135 
     20 C          29.0748   28.3347    1.7681 C.2       4 UNK         0.5031 
     21 O          29.6370   29.2679    2.3378 O.2       4 UNK        -0.5229 
     22 CA         28.9481   28.3855    0.2363 C.3       4 UNK         0.0329 
     23 CB         30.1860   27.7517   -0.4164 C.3       4 UNK        -0.2001 
     24 N          27.7423   27.7499   -0.3018 N.am      4 UNK        -0.4303 
     25 C          26.4720   27.9430    0.0886 C.2       3 UNK         0.5044 
     26 O          26.1379   28.7527    0.9556 O.2       3 UNK        -0.5152 
     27 CA         25.3971   27.0482   -0.5625 C.3       3 UNK         0.0319 
     28 CB         24.5718   27.8603   -1.5728 C.3       3 UNK        -0.2001 
     29 N          25.9326   25.8483   -1.2245 N.am      3 UNK        -0.4354 
     30 C          26.6117   24.8695   -0.6077 C.2       2 UNK         0.4964 
     31 O          26.8038   24.8391    0.6108 O.2       2 UNK        -0.5047 
     32 CA         27.2434   23.7977   -1.5072 C.3       2 UNK         0.0288 
     33 CB         28.2226   24.4299   -2.5227 C.3       2 UNK        -0.2113 
     34 N          27.9530   22.8513   -0.6521 N.am      2 UNK        -0.4145 
     35 C          28.4485   21.6601   -1.0084 C.2       1 UNK         0.5006 
     36 O          28.3324   21.1791   -2.1373 O.2       1 UNK        -0.5103 
     37 C          27.6750   28.3532    4.5507 C.2       5 UNK         0.5055 
     38 O          27.9967   28.6782    5.6940 O.2       5 UNK        -0.5220 
     39 N          26.7133   28.9625    3.8432 N.am      6 UNK        -0.4450 
     40 CA         25.9801   30.1475    4.2840 C.3       6 UNK         0.0367 
     41 CB         24.4742   29.9166    4.0752 C.3       6 UNK        -0.1929 
     42 C          26.4381   31.3977    3.5199 C.2       6 UNK         0.5070 
     43 O          26.5654   32.4600    4.1283 O.2       6 UNK        -0.5237 
     44 N          26.6566   31.2634    2.2033 N.am      7 UNK        -0.4739 
     45 CA         26.9642   32.3759    1.3005 C.3       7 UNK         0.0276 
     46 CB         26.7238   31.9335   -0.1522 C.3       7 UNK        -0.1927 
     47 C          28.3788   32.9579    1.4651 C.2       7 UNK         0.5013 
     48 O          28.5621   34.1447    1.1900 O.2       7 UNK        -0.5193 
     49 N          29.3434   32.1335    1.8939 N.am      8 UNK        -0.4253 
     50 CA         30.7339   32.5306    2.1251 C.3       8 UNK         0.0242 
     51 CB         31.6562   31.8096    1.1273 C.3       8 UNK        -0.2000 
     52 C          31.1537   32.2399    3.5701 C.2       8 UNK         0.4948 
     53 O          31.7345   33.1158    4.2123 O.2       8 UNK        -0.5275 
     54 N          30.8672   31.0213    4.0532 N.am      9 UNK        -0.4246 
     55 CA         31.1177   30.4616    5.3910 C.3       9 UNK         0.0261 
     56 CB         30.3533   31.2436    6.4759 C.3       9 UNK        -0.1959 
     57 C          32.6039   30.2995    5.7634 C.2       9 UNK         0.5033 
     58 O          32.9846   29.2497    6.2808 O.2       9 UNK        -0.5390 
     59 N          33.4194   31.3196    5.4774 N.am      10 UNK        -0.4215 
     60 CA         34.8698   31.3594    5.6854 C.3       10 UNK         0.0240 
     61 CB         35.2851   32.8218    5.9269 C.3       10 UNK        -0.1982 
     62 C          35.6722   30.7381    4.5225 C.2       10 UNK         0.4970 
     63 O          36.8995   30.8483    4.5169 O.2       10 UNK        -0.4916 
     64 N          34.9816   30.1264    3.5522 N.am      11 UNK        -0.4279 
     65 CA         35.5490   29.4268    2.3922 C.3       11 UNK         0.1003 
     66 C          36.4599   28.2172    2.7556 C.2       11 UNK         0.5709 
     67 N          37.3444   27.8204    1.8500 N.am      11 UNK        -0.7358 
     68 O          36.3573   27.6192    3.8253 O.2       11 UNK        -0.4999 
     69 C69        34.4338   29.0401    1.3827 C.3       12 UNK        -0.0954 
     70 S70        33.1197   27.9949    2.1042 S.3       12 UNK        -0.2268 
     71 C71        33.4792   26.3939    1.3002 C.3       12 UNK         0.0203 
     72 H72        26.5046   21.8772    3.4080 H         1 UNK         0.0888 
     73 H73        26.8028   20.1984    3.8698 H         1 UNK         0.0888 
     74 H74        28.1191   21.3678    3.9168 H         1 UNK         0.0888 
     75 H75        29.3444   21.6944    2.0176 H         1 UNK         0.3017 
     76 H76        29.0383   19.8138   -0.1222 H         1 UNK         0.0873 
     77 H77        31.0845   20.8164   -1.0589 H         1 UNK         0.0745 
     78 H78        30.9540   22.1921    0.0037 H         1 UNK         0.0745 
     79 H79        33.7505   20.9247    2.2663 H         1 UNK         0.0705 
     80 H80        33.6929   21.4750    0.6090 H         1 UNK         0.0705 
     81 H81        33.9786   23.8204    0.7322 H         1 UNK         0.1334 
     82 H82        31.4228   26.2232    3.2068 H         1 UNK         0.1417 
     83 H83        31.2176   21.9582    3.4314 H         1 UNK         0.1562 
     84 H84        30.2458   25.0796    5.0794 H         1 UNK         0.0748 
     85 H85        30.0480   23.3450    5.0755 H         1 UNK         0.0748 
     86 H86        27.8223   25.7234    5.4022 H         1 UNK         0.0940 
     87 H87        26.7013   25.8322    4.0707 H         1 UNK         0.0940 
     88 H88        29.4366   27.1998    4.2485 H         1 UNK         0.0703 
     89 H89        28.0668   26.5698    1.8750 H         1 UNK         0.3081 
     90 H90        28.9161   29.4370   -0.0506 H         1 UNK         0.0719 
     91 H91        30.2924   26.6994   -0.1478 H         1 UNK         0.0809 
     92 H92        30.1459   27.8211   -1.5035 H         1 UNK         0.0809 
     93 H93        31.0953   28.2629   -0.0983 H         1 UNK         0.0809 
     94 H94        27.8935   27.0640   -1.0256 H         1 UNK         0.2990 
     95 H95        24.7316   26.7165    0.2371 H         1 UNK         0.0690 
     96 H96        23.7463   27.2730   -1.9753 H         1 UNK         0.0788 
     97 H97        25.1813   28.2039   -2.4097 H         1 UNK         0.0788 
     98 H98        24.1379   28.7439   -1.1021 H         1 UNK         0.0788 
     99 H99        25.8139   25.7989   -2.2266 H         1 UNK         0.2993 
    100 H100       26.4429   23.2724   -2.0321 H         1 UNK         0.0949 
    101 H101       28.6778   23.6754   -3.1641 H         1 UNK         0.0767 
    102 H102       27.7191   25.1352   -3.1845 H         1 UNK         0.0767 
    103 H103       29.0298   24.9660   -2.0216 H         1 UNK         0.0767 
    104 H104       28.0280   23.1550    0.3122 H         1 UNK         0.3013 
    105 H105       26.5305   28.6496    2.8947 H         1 UNK         0.3121 
    106 H106       26.1485   30.3295    5.3478 H         1 UNK         0.0774 
    107 H107       24.2337   29.7253    3.0284 H         1 UNK         0.0815 
    108 H108       23.8985   30.7884    4.3893 H         1 UNK         0.0815 
    109 H109       24.1207   29.0673    4.6599 H         1 UNK         0.0815 
    110 H110       26.4921   30.3593    1.7663 H         1 UNK         0.2987 
    111 H111       26.2622   33.1833    1.5213 H         1 UNK         0.0949 
    112 H112       27.3891   31.1231   -0.4464 H         1 UNK         0.0806 
    113 H113       25.6985   31.5929   -0.2986 H         1 UNK         0.0806 
    114 H114       26.8920   32.7597   -0.8444 H         1 UNK         0.0806 
    115 H115       29.1074   31.1706    2.1085 H         1 UNK         0.3010 
    116 H116       30.8545   33.6052    1.9723 H         1 UNK         0.0829 
    117 H117       31.5874   30.7251    1.2151 H         1 UNK         0.0813 
    118 H118       31.4075   32.0751    0.0999 H         1 UNK         0.0813 
    119 H119       32.6983   32.0875    1.2904 H         1 UNK         0.0813 
    120 H120       30.4387   30.3582    3.4051 H         1 UNK         0.3038 
    121 H121       30.6981   29.4547    5.3611 H         1 UNK         0.0769 
    122 H122       30.4652   30.7659    7.4500 H         1 UNK         0.0811 
    123 H123       30.7117   32.2687    6.5731 H         1 UNK         0.0811 
    124 H124       29.2862   31.2801    6.2549 H         1 UNK         0.0811 
    125 H125       32.9893   32.1379    5.0458 H         1 UNK         0.3204 
    126 H126       35.1128   30.7853    6.5819 H         1 UNK         0.0748 
    127 H127       36.3497   32.8991    6.1520 H         1 UNK         0.0771 
    128 H128       35.0888   33.4449    5.0533 H         1 UNK         0.0771 
    129 H129       34.7474   33.2516    6.7723 H         1 UNK         0.0771 
    130 H130       33.9835   30.0383    3.6626 H         1 UNK         0.2980 
    131 H131       36.1947   30.1536    1.8957 H         1 UNK         0.0545 
    132 H132       37.4381   28.2958    0.9661 H         1 UNK         0.3459 
    133 H133       37.9380   27.0334    2.0599 H         1 UNK         0.3459 
    134 H134       33.9616   29.9464    1.0037 H         1 UNK         0.0616 
    135 H135       34.8578   28.5522    0.5034 H         1 UNK         0.0616 
    136 H136       34.5580   26.2335    1.3257 H         1 UNK         0.0634 
    137 H137       33.1970   26.4636    0.2489 H         1 UNK         0.0634 
@<TRIPOS>BOND
     1    1    2 1    
     2    1   72 1    
     3    1   73 1    
     4    1   74 1    
     5    2    3 2    
     6    2    4 am   BACKBONE|DICT|INTERRES
     7    4    5 1    
     8    4   75 1    
     9    5    6 1    
    10    5   35 1    
    11    5   76 1    
    12    6    7 1    
    13    6   77 1    
    14    6   78 1    
    15    7    8 1    
    16    8    9 1    
    17    8   79 1    
    18    8   80 1    
    19    9   10 ar   
    20    9   14 ar   
    21   10   11 ar   
    22   10   81 1    
    23   11   12 ar   
    24   11   71 1    
    25   12   13 ar   
    26   12   82 1    
    27   13   14 ar   
    28   13   15 1    
    29   14   83 1    
    30   15   16 1    
    31   15   84 1    
    32   15   85 1    
    33   16   17 1    
    34   17   18 1    
    35   17   86 1    
    36   17   87 1    
    37   18   19 1    
    38   18   37 1    
    39   18   88 1    
    40   19   20 am   BACKBONE|DICT|INTERRES
    41   19   89 1    
    42   20   21 2    
    43   20   22 1    
    44   22   23 1    
    45   22   24 1    
    46   22   90 1    
    47   23   91 1    
    48   23   92 1    
    49   23   93 1    
    50   24   25 am   BACKBONE|DICT|INTERRES
    51   24   94 1    
    52   25   26 2    
    53   25   27 1    
    54   27   28 1    
    55   27   29 1    
    56   27   95 1    
    57   28   96 1    
    58   28   97 1    
    59   28   98 1    
    60   29   30 am   BACKBONE|DICT|INTERRES
    61   29   99 1    
    62   30   31 2    
    63   30   32 1    
    64   32   33 1    
    65   32   34 1    
    66   32  100 1    
    67   33  101 1    
    68   33  102 1    
    69   33  103 1    
    70   34   35 am   BACKBONE|DICT|INTERRES
    71   34  104 1    
    72   35   36 2    
    73   37   38 2    
    74   37   39 am   BACKBONE|DICT|INTERRES
    75   39   40 1    
    76   39  105 1    
    77   40   41 1    
    78   40   42 1    
    79   40  106 1    
    80   41  107 1    
    81   41  108 1    
    82   41  109 1    
    83   42   43 2    
    84   42   44 am   BACKBONE|DICT|INTERRES
    85   44   45 1    
    86   44  110 1    
    87   45   46 1    
    88   45   47 1    
    89   45  111 1    
    90   46  112 1    
    91   46  113 1    
    92   46  114 1    
    93   47   48 2    
    94   47   49 am   BACKBONE|DICT|INTERRES
    95   49   50 1    
    96   49  115 1    
    97   50   51 1    
    98   50   52 1    
    99   50  116 1    
   100   51  117 1    
   101   51  118 1    
   102   51  119 1    
   103   52   53 2    
   104   52   54 am   BACKBONE|DICT|INTERRES
   105   54   55 1    
   106   54  120 1    
   107   55   56 1    
   108   55   57 1    
   109   55  121 1    
   110   56  122 1    
   111   56  123 1    
   112   56  124 1    
   113   57   58 2    
   114   57   59 am   BACKBONE|DICT|INTERRES
   115   59   60 1    
   116   59  125 1    
   117   60   61 1    
   118   60   62 1    
   119   60  126 1    
   120   61  127 1    
   121   61  128 1    
   122   61  129 1    
   123   62   63 2    
   124   62   64 am   BACKBONE|DICT|INTERRES
   125   64   65 1    
   126   64  130 1    
   127   65   66 1    
   128   65   69 1    
   129   65  131 1    
   130   66   67 am   BACKBONE|DICT|INTERRES
   131   66   68 2    
   132   67  132 1    
   133   67  133 1    
   134   69   70 1    
   135   69  134 1    
   136   69  135 1    
   137   70   71 1    
   138   71  136 1    
   139   71  137 1    
@<TRIPOS>SUBSTRUCTURE
     1 UNK         1 GROUP             0       ****    0 ROOT    
