@<TRIPOS>MOLECULE
3R136
137   139    1
SMALL
USER_CHARGES


@<TRIPOS>ATOM
      1 CA         31.0623   21.5831   -0.9296 C.3       0 UNK        -0.1979 
      2 C          30.5113   22.9886   -0.7471 C.2       0 UNK         0.4864 
      3 O          29.3822   23.1431   -0.2796 O.2       0 UNK        -0.5359 
      4 N          31.2958   24.0115   -1.1247 N.am      1 UNK        -0.4318 
      5 CA         31.0017   25.4482   -0.9721 C.3       1 UNK         0.0824 
      6 C6         31.0772   25.9169    0.5065 C.3       12 UNK        -0.0944 
      7 S7         32.7534   25.7442    1.2090 S.3       12 UNK        -0.2672 
      8 C8         32.6326   24.2103    2.1850 C.3       12 UNK         0.0333 
      9 C9         31.6799   24.3417    3.3643 C.ar      12 UNK        -0.0807 
     10 C10        32.0582   25.0734    4.4933 C.ar      12 UNK        -0.0894 
     11 C11        31.1900   25.1990    5.5825 C.ar      12 UNK        -0.0804 
     12 C12        29.9438   24.5675    5.5452 C.ar      12 UNK        -0.0824 
     13 C13        29.5562   23.8276    4.4228 C.ar      12 UNK        -0.0762 
     14 C14        30.4281   23.7186    3.3355 C.ar      12 UNK        -0.0782 
     15 C15        28.1953   23.1463    4.3818 C.3       12 UNK         0.0230 
     16 S16        26.9808   24.1053    3.4207 S.3       12 UNK        -0.2608 
     17 C17        26.8255   25.6180    4.4325 C.3       12 UNK        -0.0989 
     18 CA         27.6693   26.7879    3.8541 C.3       5 UNK         0.0716 
     19 N          27.2604   27.1508    2.4889 N.am      5 UNK        -0.4135 
     20 C          26.1046   27.7188    2.1132 C.2       4 UNK         0.5031 
     21 O          25.2625   28.1686    2.8902 O.2       4 UNK        -0.5229 
     22 CA         25.8450   27.7720    0.6013 C.3       4 UNK         0.0329 
     23 CB         26.6438   28.9112   -0.0531 C.3       4 UNK        -0.2001 
     24 N          26.1746   26.4964   -0.0398 N.am      4 UNK        -0.4303 
     25 C          25.4170   25.3896    0.0484 C.2       3 UNK         0.5044 
     26 O          24.3343   25.3606    0.6364 O.2       3 UNK        -0.5152 
     27 CA         25.9467   24.0966   -0.6132 C.3       3 UNK         0.0319 
     28 CB         24.8158   23.1929   -1.1493 C.3       3 UNK        -0.2001 
     29 N          26.9688   24.3285   -1.6398 N.am      3 UNK        -0.4354 
     30 C          26.8362   25.0228   -2.7834 C.2       2 UNK         0.4964 
     31 O          25.7575   25.4454   -3.2021 O.2       2 UNK        -0.5047 
     32 CA         28.1263   25.3323   -3.5785 C.3       2 UNK         0.0288 
     33 CB         28.0619   26.7115   -4.2697 C.3       2 UNK        -0.2113 
     34 N          29.3662   25.2195   -2.7940 N.am      2 UNK        -0.4145 
     35 C          29.6752   25.8617   -1.6538 C.2       1 UNK         0.5006 
     36 O          28.9342   26.6890   -1.1174 O.2       1 UNK        -0.5103 
     37 C          27.7869   27.9782    4.8372 C.2       5 UNK         0.5055 
     38 O          27.8134   27.7633    6.0503 O.2       5 UNK        -0.5220 
     39 N          27.8914   29.2031    4.3087 N.am      6 UNK        -0.4450 
     40 CA         28.1223   30.4364    5.0531 C.3       6 UNK         0.0367 
     41 CB         26.8733   30.8608    5.8541 C.3       6 UNK        -0.1929 
     42 C          28.5669   31.5164    4.0659 C.2       6 UNK         0.5070 
     43 O          29.7231   31.9369    4.1047 O.2       6 UNK        -0.5237 
     44 N          27.6474   31.9178    3.1759 N.am      7 UNK        -0.4739 
     45 CA         27.8435   32.9436    2.1478 C.3       7 UNK         0.0276 
     46 CB         26.5078   33.1969    1.4271 C.3       7 UNK        -0.1927 
     47 C          28.9535   32.5579    1.1550 C.2       7 UNK         0.5013 
     48 O          28.7253   31.7104    0.2906 O.2       7 UNK        -0.5193 
     49 N          30.1372   33.1618    1.3377 N.am      8 UNK        -0.4253 
     50 CA         31.3856   32.9236    0.6005 C.3       8 UNK         0.0242 
     51 CB         31.2475   33.3751   -0.8699 C.3       8 UNK        -0.2000 
     52 C          31.9295   31.4835    0.7300 C.2       8 UNK         0.4948 
     53 O          32.6807   31.0410   -0.1417 O.2       8 UNK        -0.5275 
     54 N          31.5585   30.7773    1.8073 N.am      9 UNK        -0.4246 
     55 CA         32.0212   29.4209    2.0957 C.3       9 UNK         0.0261 
     56 CB         30.9738   28.7034    2.9584 C.3       9 UNK        -0.1959 
     57 C          33.3843   29.4471    2.7994 C.2       9 UNK         0.5033 
     58 O          33.6620   30.3633    3.5778 O.2       9 UNK        -0.5390 
     59 N          34.1986   28.4160    2.5494 N.am      10 UNK        -0.4215 
     60 CA         35.5430   28.2379    3.1047 C.3       10 UNK         0.0240 
     61 CB         36.3718   27.3891    2.1214 C.3       10 UNK        -0.1982 
     62 C          35.5118   27.6384    4.5252 C.2       10 UNK         0.4970 
     63 O          36.2079   26.6576    4.7951 O.2       10 UNK        -0.4916 
     64 N          34.6868   28.2194    5.4019 N.am      11 UNK        -0.4279 
     65 CA         34.5284   27.8090    6.8029 C.3       11 UNK         0.1003 
     66 C          35.7186   28.2613    7.6915 C.2       11 UNK         0.5709 
     67 N          35.9785   27.5551    8.7836 N.am      11 UNK        -0.7358 
     68 O          36.3855   29.2597    7.4232 O.2       11 UNK        -0.4999 
     69 C69        33.1732   28.2795    7.3980 C.3       12 UNK        -0.0954 
     70 S70        31.7330   27.7789    6.3967 S.3       12 UNK        -0.2268 
     71 C71        31.6089   26.0086    6.7999 C.3       12 UNK         0.0203 
     72 H72        31.1022   21.0707    0.0311 H         1 UNK         0.0888 
     73 H73        30.4163   21.0108   -1.5947 H         1 UNK         0.0888 
     74 H74        32.0666   21.5895   -1.3527 H         1 UNK         0.0888 
     75 H75        32.2071   23.8064   -1.5112 H         1 UNK         0.3017 
     76 H76        31.7788   25.9792   -1.5242 H         1 UNK         0.0873 
     77 H77        30.8186   26.9734    0.5822 H         1 UNK         0.0745 
     78 H78        30.3461   25.3896    1.1193 H         1 UNK         0.0745 
     79 H79        32.3368   23.3860    1.5362 H         1 UNK         0.0705 
     80 H80        33.6265   23.9575    2.5569 H         1 UNK         0.0705 
     81 H81        33.0248   25.5585    4.5197 H         1 UNK         0.1334 
     82 H82        29.2716   24.6594    6.3874 H         1 UNK         0.1417 
     83 H83        30.1248   23.1541    2.4636 H         1 UNK         0.1562 
     84 H84        27.8138   22.9818    5.3908 H         1 UNK         0.0748 
     85 H85        28.2969   22.1577    3.9318 H         1 UNK         0.0748 
     86 H86        27.1150   25.3819    5.4574 H         1 UNK         0.0940 
     87 H87        25.7717   25.8968    4.4817 H         1 UNK         0.0940 
     88 H88        28.6952   26.4326    3.7509 H         1 UNK         0.0703 
     89 H89        27.8682   26.8153    1.7557 H         1 UNK         0.3081 
     90 H90        24.7825   27.9729    0.4467 H         1 UNK         0.0719 
     91 H91        26.3721   29.8755    0.3777 H         1 UNK         0.0809 
     92 H92        27.7197   28.7911    0.0801 H         1 UNK         0.0809 
     93 H93        26.4473   28.9687   -1.1238 H         1 UNK         0.0809 
     94 H94        27.0587   26.4512   -0.5390 H         1 UNK         0.2990 
     95 H95        26.4530   23.5481    0.1827 H         1 UNK         0.0690 
     96 H96        25.2145   22.2850   -1.6016 H         1 UNK         0.0788 
     97 H97        24.2082   23.7031   -1.8970 H         1 UNK         0.0788 
     98 H98        24.1472   22.8846   -0.3446 H         1 UNK         0.0788 
     99 H99        27.8992   24.0182   -1.3732 H         1 UNK         0.2993 
    100 H100       28.1850   24.5711   -4.3580 H         1 UNK         0.0949 
    101 H101       27.9337   27.5187   -3.5474 H         1 UNK         0.0767 
    102 H102       28.9691   26.9125   -4.8396 H         1 UNK         0.0767 
    103 H103       27.2260   26.7643   -4.9684 H         1 UNK         0.0767 
    104 H104       30.0304   24.5362   -3.1310 H         1 UNK         0.3013 
    105 H105       27.8704   29.2940    3.3029 H         1 UNK         0.3121 
    106 H106       28.9455   30.2706    5.7519 H         1 UNK         0.0774 
    107 H107       25.9809   30.9081    5.2294 H         1 UNK         0.0815 
    108 H108       26.6687   30.1640    6.6668 H         1 UNK         0.0815 
    109 H109       27.0133   31.8441    6.3052 H         1 UNK         0.0815 
    110 H110       26.7285   31.5012    3.2174 H         1 UNK         0.2987 
    111 H111       28.1304   33.8700    2.6504 H         1 UNK         0.0949 
    112 H112       25.7447   33.5555    2.1182 H         1 UNK         0.0806 
    113 H113       26.6222   33.9553    0.6514 H         1 UNK         0.0806 
    114 H114       26.1275   32.2955    0.9455 H         1 UNK         0.0806 
    115 H115       30.2183   33.7976    2.1201 H         1 UNK         0.3010 
    116 H116       32.1360   33.5624    1.0687 H         1 UNK         0.0829 
    117 H117       30.5642   32.7334   -1.4271 H         1 UNK         0.0813 
    118 H118       30.8788   34.3985   -0.9387 H         1 UNK         0.0813 
    119 H119       32.2100   33.3452   -1.3822 H         1 UNK         0.0813 
    120 H120       30.9959   31.2298    2.5194 H         1 UNK         0.3038 
    121 H121       32.1249   28.8758    1.1554 H         1 UNK         0.0769 
    122 H122       30.0214   28.6315    2.4350 H         1 UNK         0.0811 
    123 H123       30.8077   29.2251    3.9013 H         1 UNK         0.0811 
    124 H124       31.2879   27.6872    3.2007 H         1 UNK         0.0811 
    125 H125       33.8596   27.6665    1.9583 H         1 UNK         0.3204 
    126 H126       36.0236   29.2154    3.1840 H         1 UNK         0.0748 
    127 H127       35.9571   26.3867    2.0055 H         1 UNK         0.0771 
    128 H128       36.4118   27.8512    1.1348 H         1 UNK         0.0771 
    129 H129       37.4008   27.2804    2.4667 H         1 UNK         0.0771 
    130 H130       34.1717   29.0404    5.1059 H         1 UNK         0.2980 
    131 H131       34.5338   26.7181    6.8134 H         1 UNK         0.0545 
    132 H132       36.7391   27.8404    9.3806 H         1 UNK         0.3459 
    133 H133       35.4342   26.7408    9.0222 H         1 UNK         0.3459 
    134 H134       33.1547   29.3676    7.4814 H         1 UNK         0.0616 
    135 H135       33.0394   27.8934    8.4101 H         1 UNK         0.0616 
    136 H136       30.8985   25.8853    7.6187 H         1 UNK         0.0634 
    137 H137       32.5623   25.6251    7.1625 H         1 UNK         0.0634 
@<TRIPOS>BOND
     1    1    2 1    
     2    1   72 1    
     3    1   73 1    
     4    1   74 1    
     5    2    3 2    
     6    2    4 am   BACKBONE|DICT|INTERRES
     7    4    5 1    
     8    4   75 1    
     9    5    6 1    
    10    5   35 1    
    11    5   76 1    
    12    6    7 1    
    13    6   77 1    
    14    6   78 1    
    15    7    8 1    
    16    8    9 1    
    17    8   79 1    
    18    8   80 1    
    19    9   10 ar   
    20    9   14 ar   
    21   10   11 ar   
    22   10   81 1    
    23   11   12 ar   
    24   11   71 1    
    25   12   13 ar   
    26   12   82 1    
    27   13   14 ar   
    28   13   15 1    
    29   14   83 1    
    30   15   16 1    
    31   15   84 1    
    32   15   85 1    
    33   16   17 1    
    34   17   18 1    
    35   17   86 1    
    36   17   87 1    
    37   18   19 1    
    38   18   37 1    
    39   18   88 1    
    40   19   20 am   BACKBONE|DICT|INTERRES
    41   19   89 1    
    42   20   21 2    
    43   20   22 1    
    44   22   23 1    
    45   22   24 1    
    46   22   90 1    
    47   23   91 1    
    48   23   92 1    
    49   23   93 1    
    50   24   25 am   BACKBONE|DICT|INTERRES
    51   24   94 1    
    52   25   26 2    
    53   25   27 1    
    54   27   28 1    
    55   27   29 1    
    56   27   95 1    
    57   28   96 1    
    58   28   97 1    
    59   28   98 1    
    60   29   30 am   BACKBONE|DICT|INTERRES
    61   29   99 1    
    62   30   31 2    
    63   30   32 1    
    64   32   33 1    
    65   32   34 1    
    66   32  100 1    
    67   33  101 1    
    68   33  102 1    
    69   33  103 1    
    70   34   35 am   BACKBONE|DICT|INTERRES
    71   34  104 1    
    72   35   36 2    
    73   37   38 2    
    74   37   39 am   BACKBONE|DICT|INTERRES
    75   39   40 1    
    76   39  105 1    
    77   40   41 1    
    78   40   42 1    
    79   40  106 1    
    80   41  107 1    
    81   41  108 1    
    82   41  109 1    
    83   42   43 2    
    84   42   44 am   BACKBONE|DICT|INTERRES
    85   44   45 1    
    86   44  110 1    
    87   45   46 1    
    88   45   47 1    
    89   45  111 1    
    90   46  112 1    
    91   46  113 1    
    92   46  114 1    
    93   47   48 2    
    94   47   49 am   BACKBONE|DICT|INTERRES
    95   49   50 1    
    96   49  115 1    
    97   50   51 1    
    98   50   52 1    
    99   50  116 1    
   100   51  117 1    
   101   51  118 1    
   102   51  119 1    
   103   52   53 2    
   104   52   54 am   BACKBONE|DICT|INTERRES
   105   54   55 1    
   106   54  120 1    
   107   55   56 1    
   108   55   57 1    
   109   55  121 1    
   110   56  122 1    
   111   56  123 1    
   112   56  124 1    
   113   57   58 2    
   114   57   59 am   BACKBONE|DICT|INTERRES
   115   59   60 1    
   116   59  125 1    
   117   60   61 1    
   118   60   62 1    
   119   60  126 1    
   120   61  127 1    
   121   61  128 1    
   122   61  129 1    
   123   62   63 2    
   124   62   64 am   BACKBONE|DICT|INTERRES
   125   64   65 1    
   126   64  130 1    
   127   65   66 1    
   128   65   69 1    
   129   65  131 1    
   130   66   67 am   BACKBONE|DICT|INTERRES
   131   66   68 2    
   132   67  132 1    
   133   67  133 1    
   134   69   70 1    
   135   69  134 1    
   136   69  135 1    
   137   70   71 1    
   138   71  136 1    
   139   71  137 1    
@<TRIPOS>SUBSTRUCTURE
     1 UNK         1 GROUP             0       ****    0 ROOT    
