@<TRIPOS>MOLECULE
3R136
137   139    1
SMALL
USER_CHARGES


@<TRIPOS>ATOM
      1 CA         29.7235   23.1360    1.9608 C.3       0 UNK        -0.1979 
      2 C          29.1310   24.5242    2.1472 C.2       0 UNK         0.4864 
      3 O          28.8764   25.2151    1.1572 O.2       0 UNK        -0.5359 
      4 N          28.9132   24.9336    3.4040 N.am      1 UNK        -0.4318 
      5 CA         28.3328   26.2244    3.7835 C.3       1 UNK         0.0824 
      6 C6         28.4070   26.4955    5.3131 C.3       12 UNK        -0.0944 
      7 S7         29.9365   25.9830    6.1742 S.3       12 UNK        -0.2672 
      8 C8         31.2492   26.9683    5.3844 C.3       12 UNK         0.0333 
      9 C9         31.8800   26.2515    4.1982 C.ar      12 UNK        -0.0807 
     10 C10        32.4303   24.9758    4.3561 C.ar      12 UNK        -0.0894 
     11 C11        32.9858   24.3016    3.2666 C.ar      12 UNK        -0.0804 
     12 C12        32.9996   24.9198    2.0140 C.ar      12 UNK        -0.0824 
     13 C13        32.4793   26.2062    1.8398 C.ar      12 UNK        -0.0762 
     14 C14        31.9228   26.8666    2.9442 C.ar      12 UNK        -0.0782 
     15 C15        32.5435   26.8128    0.4370 C.3       12 UNK         0.0230 
     16 S16        32.0985   28.5781    0.2770 S.3       12 UNK        -0.2608 
     17 C17        30.2789   28.5708    0.4061 C.3       12 UNK        -0.0989 
     18 CA         29.5956   28.2468   -0.9447 C.3       5 UNK         0.0716 
     19 N          29.5107   26.8040   -1.1560 N.am      5 UNK        -0.4135 
     20 C          29.3949   26.2070   -2.3479 C.2       4 UNK         0.5031 
     21 O          29.5670   26.7726   -3.4284 O.2       4 UNK        -0.5229 
     22 CA         28.9562   24.7370   -2.3161 C.3       4 UNK         0.0329 
     23 CB         30.1107   23.8259   -1.8655 C.3       4 UNK        -0.2001 
     24 N          27.8140   24.5790   -1.4125 N.am      4 UNK        -0.4303 
     25 C          26.5348   24.7623   -1.7672 C.2       3 UNK         0.5044 
     26 O          26.1631   24.9837   -2.9202 O.2       3 UNK        -0.5152 
     27 CA         25.4978   24.7101   -0.6402 C.3       3 UNK         0.0319 
     28 CB         25.5848   23.4042    0.1758 C.3       3 UNK        -0.2001 
     29 N          25.6656   25.8742    0.2241 N.am      3 UNK        -0.4354 
     30 C          24.7414   26.3817    1.0473 C.2       2 UNK         0.4964 
     31 O          23.5946   25.9391    1.1451 O.2       2 UNK        -0.5047 
     32 CA         25.1973   27.5680    1.9283 C.3       2 UNK         0.0288 
     33 CB         24.1574   27.9629    2.9985 C.3       2 UNK        -0.2113 
     34 N          26.5115   27.3443    2.5521 N.am      2 UNK        -0.4145 
     35 C          26.8668   26.2931    3.3071 C.2       1 UNK         0.5006 
     36 O          26.0963   25.3881    3.6404 O.2       1 UNK        -0.5103 
     37 C          28.1608   28.7999   -0.9781 C.2       5 UNK         0.5055 
     38 O          27.2383   28.1110   -0.5401 O.2       5 UNK        -0.5220 
     39 N          27.9936   30.0347   -1.4687 N.am      6 UNK        -0.4450 
     40 CA         26.6907   30.7004   -1.6054 C.3       6 UNK         0.0367 
     41 CB         26.8611   31.9684   -2.4580 C.3       6 UNK        -0.1929 
     42 C          26.0082   31.0442   -0.2667 C.2       6 UNK         0.5070 
     43 O          24.7921   31.2343   -0.2407 O.2       6 UNK        -0.5237 
     44 N          26.7936   31.1189    0.8115 N.am      7 UNK        -0.4739 
     45 CA         26.3616   31.3847    2.1790 C.3       7 UNK         0.0276 
     46 CB         26.1735   32.9038    2.3853 C.3       7 UNK        -0.1927 
     47 C          27.3883   30.7555    3.1347 C.2       7 UNK         0.5013 
     48 O          28.0709   29.7986    2.7513 O.2       7 UNK        -0.5193 
     49 N          27.4836   31.2935    4.3566 N.am      8 UNK        -0.4253 
     50 CA         28.5221   30.9548    5.3290 C.3       8 UNK         0.0242 
     51 CB         28.1249   31.5056    6.7080 C.3       8 UNK        -0.2000 
     52 C          29.8897   31.5093    4.8942 C.2       8 UNK         0.4948 
     53 O          29.9547   32.5787    4.2827 O.2       8 UNK        -0.5275 
     54 N          30.9493   30.7787    5.2461 N.am      9 UNK        -0.4246 
     55 CA         32.3522   31.0602    4.9539 C.3       9 UNK         0.0261 
     56 CB         32.6412   30.9509    3.4368 C.3       9 UNK        -0.1959 
     57 C          33.1829   30.0883    5.8081 C.2       9 UNK         0.5033 
     58 O          32.7344   29.7129    6.8949 O.2       9 UNK        -0.5390 
     59 N          34.3440   29.6646    5.3025 N.am      10 UNK        -0.4215 
     60 CA         35.1720   28.6016    5.8630 C.3       10 UNK         0.0240 
     61 CB         36.3870   29.2168    6.5782 C.3       10 UNK        -0.1982 
     62 C          35.6116   27.6914    4.7117 C.2       10 UNK         0.4970 
     63 O          35.7283   28.1634    3.5775 O.2       10 UNK        -0.4916 
     64 N          35.8589   26.4156    5.0280 N.am      11 UNK        -0.4279 
     65 CA         36.2769   25.3876    4.0612 C.3       11 UNK         0.1003 
     66 C          37.7602   25.4928    3.5936 C.2       11 UNK         0.5709 
     67 N          38.6037   26.2938    4.2350 N.am      11 UNK        -0.7358 
     68 O          38.1524   24.8465    2.6253 O.2       11 UNK        -0.4999 
     69 C69        35.9203   23.9634    4.5762 C.3       12 UNK        -0.0954 
     70 S70        35.3675   22.8571    3.2350 S.3       12 UNK        -0.2268 
     71 C71        33.5569   22.9001    3.4381 C.3       12 UNK         0.0203 
     72 H72        29.0453   22.5124    1.3794 H         1 UNK         0.0888 
     73 H73        30.6701   23.2018    1.4266 H         1 UNK         0.0888 
     74 H74        29.9093   22.6423    2.9144 H         1 UNK         0.0888 
     75 H75        29.1485   24.3290    4.1771 H         1 UNK         0.3017 
     76 H76        28.9065   26.9997    3.2721 H         1 UNK         0.0873 
     77 H77        27.5993   25.9737    5.8312 H         1 UNK         0.0745 
     78 H78        28.2390   27.5548    5.5096 H         1 UNK         0.0745 
     79 H79        32.0281   27.1602    6.1230 H         1 UNK         0.0705 
     80 H80        30.8463   27.9382    5.0933 H         1 UNK         0.0705 
     81 H81        32.4101   24.5028    5.3283 H         1 UNK         0.1334 
     82 H82        33.4287   24.3953    1.1709 H         1 UNK         0.1417 
     83 H83        31.5108   27.8577    2.8398 H         1 UNK         0.1562 
     84 H84        31.9281   26.2176   -0.2361 H         1 UNK         0.0748 
     85 H85        33.5670   26.7111    0.0729 H         1 UNK         0.0748 
     86 H86        30.0022   29.5668    0.7583 H         1 UNK         0.0940 
     87 H87        29.9460   27.8830    1.1842 H         1 UNK         0.0940 
     88 H88        30.1591   28.7042   -1.7611 H         1 UNK         0.0703 
     89 H89        29.3045   26.2544   -0.3247 H         1 UNK         0.3081 
     90 H90        28.6658   24.4421   -3.3269 H         1 UNK         0.0719 
     91 H91        30.9548   23.9022   -2.5520 H         1 UNK         0.0809 
     92 H92        30.4760   24.0879   -0.8725 H         1 UNK         0.0809 
     93 H93        29.8038   22.7801   -1.8437 H         1 UNK         0.0809 
     94 H94        28.0336   24.4924   -0.4246 H         1 UNK         0.2990 
     95 H95        24.5109   24.7609   -1.1053 H         1 UNK         0.0690 
     96 H96        24.7456   23.3153    0.8659 H         1 UNK         0.0788 
     97 H97        26.5001   23.3509    0.7657 H         1 UNK         0.0788 
     98 H98        25.5596   22.5307   -0.4770 H         1 UNK         0.0788 
     99 H99        26.5347   26.3926    0.1201 H         1 UNK         0.2993 
    100 H100       25.3125   28.4185    1.2556 H         1 UNK         0.0949 
    101 H101       23.9498   27.1395    3.6829 H         1 UNK         0.0767 
    102 H102       24.4990   28.8116    3.5908 H         1 UNK         0.0767 
    103 H103       23.2118   28.2493    2.5364 H         1 UNK         0.0767 
    104 H104       27.2079   28.0595    2.3607 H         1 UNK         0.3013 
    105 H105       28.7999   30.5447   -1.8014 H         1 UNK         0.3121 
    106 H106       26.0234   30.0188   -2.1378 H         1 UNK         0.0774 
    107 H107       25.9038   32.4703   -2.6064 H         1 UNK         0.0815 
    108 H108       27.5338   32.6853   -1.9856 H         1 UNK         0.0815 
    109 H109       27.2567   31.7339   -3.4463 H         1 UNK         0.0815 
    110 H110       27.7701   30.8747    0.7185 H         1 UNK         0.2987 
    111 H111       25.4092   30.8800    2.3537 H         1 UNK         0.0949 
    112 H112       25.5055   33.3267    1.6347 H         1 UNK         0.0806 
    113 H113       25.7293   33.1260    3.3560 H         1 UNK         0.0806 
    114 H114       27.1224   33.4385    2.3215 H         1 UNK         0.0806 
    115 H115       26.9115   32.0960    4.5736 H         1 UNK         0.3010 
    116 H116       28.5883   29.8674    5.3929 H         1 UNK         0.0829 
    117 H117       27.1690   31.0984    7.0382 H         1 UNK         0.0813 
    118 H118       28.8661   31.2412    7.4635 H         1 UNK         0.0813 
    119 H119       28.0427   32.5934    6.7000 H         1 UNK         0.0813 
    120 H120       30.8233   29.9829    5.8592 H         1 UNK         0.3038 
    121 H121       32.5787   32.0734    5.2914 H         1 UNK         0.0769 
    122 H122       33.6574   31.2682    3.2008 H         1 UNK         0.0811 
    123 H123       31.9788   31.5868    2.8502 H         1 UNK         0.0811 
    124 H124       32.5198   29.9310    3.0735 H         1 UNK         0.0811 
    125 H125       34.6102   29.9475    4.3674 H         1 UNK         0.3204 
    126 H126       34.5948   28.0049    6.5731 H         1 UNK         0.0748 
    127 H127       37.0193   28.4435    7.0158 H         1 UNK         0.0771 
    128 H128       37.0057   29.7996    5.8943 H         1 UNK         0.0771 
    129 H129       36.0744   29.8755    7.3888 H         1 UNK         0.0771 
    130 H130       35.7688   26.1151    5.9871 H         1 UNK         0.2980 
    131 H131       35.6838   25.5731    3.1634 H         1 UNK         0.0545 
    132 H132       39.5587   26.3577    3.9193 H         1 UNK         0.3459 
    133 H133       38.2961   26.8333    5.0273 H         1 UNK         0.3459 
    134 H134       36.7653   23.5018    5.0905 H         1 UNK         0.0616 
    135 H135       35.1230   24.0072    5.3197 H         1 UNK         0.0616 
    136 H136       33.2980   22.4903    4.4157 H         1 UNK         0.0634 
    137 H137       33.1043   22.2372    2.6995 H         1 UNK         0.0634 
@<TRIPOS>BOND
     1    1    2 1    
     2    1   72 1    
     3    1   73 1    
     4    1   74 1    
     5    2    3 2    
     6    2    4 am   BACKBONE|DICT|INTERRES
     7    4    5 1    
     8    4   75 1    
     9    5    6 1    
    10    5   35 1    
    11    5   76 1    
    12    6    7 1    
    13    6   77 1    
    14    6   78 1    
    15    7    8 1    
    16    8    9 1    
    17    8   79 1    
    18    8   80 1    
    19    9   10 ar   
    20    9   14 ar   
    21   10   11 ar   
    22   10   81 1    
    23   11   12 ar   
    24   11   71 1    
    25   12   13 ar   
    26   12   82 1    
    27   13   14 ar   
    28   13   15 1    
    29   14   83 1    
    30   15   16 1    
    31   15   84 1    
    32   15   85 1    
    33   16   17 1    
    34   17   18 1    
    35   17   86 1    
    36   17   87 1    
    37   18   19 1    
    38   18   37 1    
    39   18   88 1    
    40   19   20 am   BACKBONE|DICT|INTERRES
    41   19   89 1    
    42   20   21 2    
    43   20   22 1    
    44   22   23 1    
    45   22   24 1    
    46   22   90 1    
    47   23   91 1    
    48   23   92 1    
    49   23   93 1    
    50   24   25 am   BACKBONE|DICT|INTERRES
    51   24   94 1    
    52   25   26 2    
    53   25   27 1    
    54   27   28 1    
    55   27   29 1    
    56   27   95 1    
    57   28   96 1    
    58   28   97 1    
    59   28   98 1    
    60   29   30 am   BACKBONE|DICT|INTERRES
    61   29   99 1    
    62   30   31 2    
    63   30   32 1    
    64   32   33 1    
    65   32   34 1    
    66   32  100 1    
    67   33  101 1    
    68   33  102 1    
    69   33  103 1    
    70   34   35 am   BACKBONE|DICT|INTERRES
    71   34  104 1    
    72   35   36 2    
    73   37   38 2    
    74   37   39 am   BACKBONE|DICT|INTERRES
    75   39   40 1    
    76   39  105 1    
    77   40   41 1    
    78   40   42 1    
    79   40  106 1    
    80   41  107 1    
    81   41  108 1    
    82   41  109 1    
    83   42   43 2    
    84   42   44 am   BACKBONE|DICT|INTERRES
    85   44   45 1    
    86   44  110 1    
    87   45   46 1    
    88   45   47 1    
    89   45  111 1    
    90   46  112 1    
    91   46  113 1    
    92   46  114 1    
    93   47   48 2    
    94   47   49 am   BACKBONE|DICT|INTERRES
    95   49   50 1    
    96   49  115 1    
    97   50   51 1    
    98   50   52 1    
    99   50  116 1    
   100   51  117 1    
   101   51  118 1    
   102   51  119 1    
   103   52   53 2    
   104   52   54 am   BACKBONE|DICT|INTERRES
   105   54   55 1    
   106   54  120 1    
   107   55   56 1    
   108   55   57 1    
   109   55  121 1    
   110   56  122 1    
   111   56  123 1    
   112   56  124 1    
   113   57   58 2    
   114   57   59 am   BACKBONE|DICT|INTERRES
   115   59   60 1    
   116   59  125 1    
   117   60   61 1    
   118   60   62 1    
   119   60  126 1    
   120   61  127 1    
   121   61  128 1    
   122   61  129 1    
   123   62   63 2    
   124   62   64 am   BACKBONE|DICT|INTERRES
   125   64   65 1    
   126   64  130 1    
   127   65   66 1    
   128   65   69 1    
   129   65  131 1    
   130   66   67 am   BACKBONE|DICT|INTERRES
   131   66   68 2    
   132   67  132 1    
   133   67  133 1    
   134   69   70 1    
   135   69  134 1    
   136   69  135 1    
   137   70   71 1    
   138   71  136 1    
   139   71  137 1    
@<TRIPOS>SUBSTRUCTURE
     1 UNK         1 GROUP             0       ****    0 ROOT    
