@<TRIPOS>MOLECULE
3R136
137   139    1
SMALL
USER_CHARGES


@<TRIPOS>ATOM
      1 CA         31.8116   27.3157   -0.5409 C.3       0 UNK        -0.1979 
      2 C          31.4066   25.8588   -0.3695 C.2       0 UNK         0.4864 
      3 O          31.8121   25.0151   -1.1700 O.2       0 UNK        -0.5359 
      4 N          30.5929   25.5615    0.6531 N.am      1 UNK        -0.4318 
      5 CA         30.0472   24.2490    1.0255 C.3       1 UNK         0.0824 
      6 C6         31.1308   23.1663    1.2901 C.3       12 UNK        -0.0944 
      7 S7         30.4590   21.6555    2.0710 S.3       12 UNK        -0.2672 
      8 C8         30.9122   21.8714    3.8206 C.3       12 UNK         0.0333 
      9 C9         30.2967   23.1211    4.4354 C.ar      12 UNK        -0.0807 
     10 C10        31.1201   24.1754    4.8384 C.ar      12 UNK        -0.0894 
     11 C11        30.5742   25.3222    5.4204 C.ar      12 UNK        -0.0804 
     12 C12        29.1904   25.4092    5.6009 C.ar      12 UNK        -0.0824 
     13 C13        28.3529   24.3600    5.2047 C.ar      12 UNK        -0.0762 
     14 C14        28.9132   23.2171    4.6238 C.ar      12 UNK        -0.0782 
     15 C15        26.8502   24.4395    5.4507 C.3       12 UNK         0.0230 
     16 S16        25.8922   24.7771    3.9359 S.3       12 UNK        -0.2608 
     17 C17        26.4105   26.4766    3.5248 C.3       12 UNK        -0.0989 
     18 CA         27.0229   26.5429    2.1015 C.3       5 UNK         0.0716 
     19 N          26.0571   26.3851    1.0026 N.am      5 UNK        -0.4135 
     20 C          25.0044   27.1653    0.7176 C.2       4 UNK         0.5031 
     21 O          24.6579   28.1215    1.4140 O.2       4 UNK        -0.5229 
     22 CA         24.2354   26.8936   -0.5860 C.3       4 UNK         0.0329 
     23 CB         24.4141   28.0706   -1.5607 C.3       4 UNK        -0.2001 
     24 N          24.6424   25.6652   -1.2699 N.am      4 UNK        -0.4303 
     25 C          24.1104   24.4559   -1.0687 C.2       3 UNK         0.5044 
     26 O          23.2710   24.2138   -0.2011 O.2       3 UNK        -0.5152 
     27 CA         24.5621   23.3306   -2.0179 C.3       3 UNK         0.0319 
     28 CB         24.0361   23.5651   -3.4484 C.3       3 UNK        -0.2001 
     29 N          26.0054   23.0551   -2.0221 N.am      3 UNK        -0.4354 
     30 C          27.0232   23.8465   -2.3919 C.2       2 UNK         0.4964 
     31 O          26.9022   25.0156   -2.7649 O.2       2 UNK        -0.5047 
     32 CA         28.4235   23.2095   -2.3330 C.3       2 UNK         0.0288 
     33 CB         29.1697   23.3963   -3.6651 C.3       2 UNK        -0.2113 
     34 N          29.2565   23.7285   -1.2461 N.am      2 UNK        -0.4145 
     35 C          28.9441   23.7707    0.0562 C.2       1 UNK         0.5006 
     36 O          27.8436   23.4531    0.5095 O.2       1 UNK        -0.5103 
     37 C          27.9346   27.7739    1.9274 C.2       5 UNK         0.5055 
     38 O          29.1529   27.6065    1.9427 O.2       5 UNK        -0.5220 
     39 N          27.3404   28.9585    1.7329 N.am      6 UNK        -0.4450 
     40 CA         27.9683   30.2833    1.6660 C.3       6 UNK         0.0367 
     41 CB         29.0480   30.3472    0.5604 C.3       6 UNK        -0.1929 
     42 C          28.4875   30.7514    3.0411 C.2       6 UNK         0.5070 
     43 O          28.1513   30.1609    4.0710 O.2       6 UNK        -0.5237 
     44 N          29.2483   31.8523    3.0388 N.am      7 UNK        -0.4739 
     45 CA         29.8581   32.4423    4.2304 C.3       7 UNK         0.0276 
     46 CB         30.2219   33.9053    3.9266 C.3       7 UNK        -0.1927 
     47 C          31.1137   31.6679    4.6549 C.2       7 UNK         0.5013 
     48 O          31.8130   31.1207    3.7979 O.2       7 UNK        -0.5193 
     49 N          31.4296   31.7154    5.9572 N.am      8 UNK        -0.4253 
     50 CA         32.6103   31.0894    6.5699 C.3       8 UNK         0.0242 
     51 CB         32.5934   31.3407    8.0859 C.3       8 UNK        -0.2000 
     52 C          33.9530   31.5388    5.9652 C.2       8 UNK         0.4948 
     53 O          34.8971   30.7505    5.9390 O.2       8 UNK        -0.5275 
     54 N          34.0022   32.7735    5.4459 N.am      9 UNK        -0.4246 
     55 CA         35.1314   33.3184    4.6897 C.3       9 UNK         0.0261 
     56 CB         34.9066   34.8230    4.4671 C.3       9 UNK        -0.1959 
     57 C          35.3794   32.6077    3.3438 C.2       9 UNK         0.5033 
     58 O          36.5096   32.6476    2.8548 O.2       9 UNK        -0.5390 
     59 N          34.3409   31.9832    2.7691 N.am      10 UNK        -0.4215 
     60 CA         34.4204   31.2059    1.5350 C.3       10 UNK         0.0240 
     61 CB         33.1602   31.4443    0.6830 C.3       10 UNK        -0.1982 
     62 C          34.6001   29.7134    1.8409 C.2       10 UNK         0.4970 
     63 O          35.5074   29.0970    1.2806 O.2       10 UNK        -0.4916 
     64 N          33.7322   29.1537    2.6962 N.am      11 UNK        -0.4279 
     65 CA         33.7082   27.7133    2.9997 C.3       11 UNK         0.1003 
     66 C          34.7304   27.2249    4.0635 C.2       11 UNK         0.5709 
     67 N          35.3750   28.0941    4.8306 N.am      11 UNK        -0.7358 
     68 O          34.9596   26.0235    4.1807 O.2       11 UNK        -0.4999 
     69 C69        32.2725   27.1999    3.2626 C.3       12 UNK        -0.0954 
     70 S70        31.4582   27.8728    4.7494 S.3       12 UNK        -0.2268 
     71 C71        31.4851   26.4515    5.8835 C.3       12 UNK         0.0203 
     72 H72        31.2390   27.9762    0.1085 H         1 UNK         0.0888 
     73 H73        32.8690   27.4421   -0.3098 H         1 UNK         0.0888 
     74 H74        31.6465   27.6333   -1.5700 H         1 UNK         0.0888 
     75 H75        30.2331   26.3317    1.2177 H         1 UNK         0.3017 
     76 H76        29.5561   24.4273    1.9822 H         1 UNK         0.0873 
     77 H77        31.6229   22.8730    0.3617 H         1 UNK         0.0745 
     78 H78        31.9170   23.5748    1.9267 H         1 UNK         0.0745 
     79 H79        32.0000   21.8882    3.9051 H         1 UNK         0.0705 
     80 H80        30.5770   20.9973    4.3806 H         1 UNK         0.0705 
     81 H81        32.1910   24.1028    4.7042 H         1 UNK         0.1334 
     82 H82        28.7703   26.2935    6.0604 H         1 UNK         0.1417 
     83 H83        28.2724   22.4009    4.3179 H         1 UNK         0.1562 
     84 H84        26.6205   25.2019    6.1969 H         1 UNK         0.0748 
     85 H85        26.5080   23.4941    5.8741 H         1 UNK         0.0748 
     86 H86        27.1309   26.8172    4.2701 H         1 UNK         0.0940 
     87 H87        25.5542   27.1437    3.6272 H         1 UNK         0.0940 
     88 H88        27.6861   25.6859    2.0110 H         1 UNK         0.0703 
     89 H89        26.2531   25.6229    0.3691 H         1 UNK         0.3081 
     90 H90        23.1765   26.8263   -0.3271 H         1 UNK         0.0719 
     91 H91        25.4579   28.1994   -1.8506 H         1 UNK         0.0809 
     92 H92        23.8293   27.9249   -2.4692 H         1 UNK         0.0809 
     93 H93        24.0818   29.0080   -1.1122 H         1 UNK         0.0809 
     94 H94        25.3779   25.7371   -1.9702 H         1 UNK         0.2990 
     95 H95        24.0942   22.4152   -1.6517 H         1 UNK         0.0690 
     96 H96        24.2498   22.7120   -4.0922 H         1 UNK         0.0788 
     97 H97        24.4768   24.4493   -3.9100 H         1 UNK         0.0788 
     98 H98        22.9544   23.7059   -3.4474 H         1 UNK         0.0788 
     99 H99        26.2487   22.1387   -1.6711 H         1 UNK         0.2993 
    100 H100       28.3100   22.1367   -2.1644 H         1 UNK         0.0949 
    101 H101       29.3812   24.4479   -3.8644 H         1 UNK         0.0767 
    102 H102       30.1181   22.8585   -3.6680 H         1 UNK         0.0767 
    103 H103       28.5798   23.0174   -4.5009 H         1 UNK         0.0767 
    104 H104       30.1848   24.0591   -1.4975 H         1 UNK         0.3013 
    105 H105       26.3228   28.9526    1.7340 H         1 UNK         0.3121 
    106 H106       27.1680   30.9710    1.3889 H         1 UNK         0.0774 
    107 H107       29.2891   31.3778    0.2998 H         1 UNK         0.0815 
    108 H108       29.9754   29.8684    0.8757 H         1 UNK         0.0815 
    109 H109       28.7124   29.8586   -0.3544 H         1 UNK         0.0815 
    110 H110       29.5032   32.2631    2.1531 H         1 UNK         0.2987 
    111 H111       29.1328   32.4189    5.0471 H         1 UNK         0.0949 
    112 H112       30.6423   34.3975    4.8045 H         1 UNK         0.0806 
    113 H113       30.9592   33.9816    3.1258 H         1 UNK         0.0806 
    114 H114       29.3436   34.4785    3.6287 H         1 UNK         0.0806 
    115 H115       30.8081   32.2043    6.5859 H         1 UNK         0.3010 
    116 H116       32.5324   30.0139    6.4050 H         1 UNK         0.0829 
    117 H117       31.6961   30.9278    8.5473 H         1 UNK         0.0813 
    118 H118       33.4494   30.8670    8.5690 H         1 UNK         0.0813 
    119 H119       32.6347   32.4051    8.3206 H         1 UNK         0.0813 
    120 H120       33.1822   33.3566    5.5254 H         1 UNK         0.3038 
    121 H121       36.0312   33.1914    5.2956 H         1 UNK         0.0769 
    122 H122       35.7460   35.2673    3.9301 H         1 UNK         0.0811 
    123 H123       34.8126   35.3558    5.4135 H         1 UNK         0.0811 
    124 H124       34.0071   35.0151    3.8806 H         1 UNK         0.0811 
    125 H125       33.4535   31.9381    3.2624 H         1 UNK         0.3204 
    126 H126       35.2802   31.5326    0.9459 H         1 UNK         0.0748 
    127 H127       33.2119   30.8850   -0.2522 H         1 UNK         0.0771 
    128 H128       32.2496   31.1336    1.1956 H         1 UNK         0.0771 
    129 H129       33.0531   32.4978    0.4245 H         1 UNK         0.0771 
    130 H130       33.0095   29.7210    3.1306 H         1 UNK         0.2980 
    131 H131       34.0183   27.2011    2.0866 H         1 UNK         0.0545 
    132 H132       35.1559   29.0829    4.8189 H         1 UNK         0.3459 
    133 H133       36.0391   27.7468    5.5029 H         1 UNK         0.3459 
    134 H134       31.6495   27.4794    2.4170 H         1 UNK         0.0616 
    135 H135       32.2591   26.1109    3.2819 H         1 UNK         0.0616 
    136 H136       31.1677   26.7886    6.8712 H         1 UNK         0.0634 
    137 H137       32.5122   26.1014    5.9974 H         1 UNK         0.0634 
@<TRIPOS>BOND
     1    1    2 1    
     2    1   72 1    
     3    1   73 1    
     4    1   74 1    
     5    2    3 2    
     6    2    4 am   BACKBONE|DICT|INTERRES
     7    4    5 1    
     8    4   75 1    
     9    5    6 1    
    10    5   35 1    
    11    5   76 1    
    12    6    7 1    
    13    6   77 1    
    14    6   78 1    
    15    7    8 1    
    16    8    9 1    
    17    8   79 1    
    18    8   80 1    
    19    9   10 ar   
    20    9   14 ar   
    21   10   11 ar   
    22   10   81 1    
    23   11   12 ar   
    24   11   71 1    
    25   12   13 ar   
    26   12   82 1    
    27   13   14 ar   
    28   13   15 1    
    29   14   83 1    
    30   15   16 1    
    31   15   84 1    
    32   15   85 1    
    33   16   17 1    
    34   17   18 1    
    35   17   86 1    
    36   17   87 1    
    37   18   19 1    
    38   18   37 1    
    39   18   88 1    
    40   19   20 am   BACKBONE|DICT|INTERRES
    41   19   89 1    
    42   20   21 2    
    43   20   22 1    
    44   22   23 1    
    45   22   24 1    
    46   22   90 1    
    47   23   91 1    
    48   23   92 1    
    49   23   93 1    
    50   24   25 am   BACKBONE|DICT|INTERRES
    51   24   94 1    
    52   25   26 2    
    53   25   27 1    
    54   27   28 1    
    55   27   29 1    
    56   27   95 1    
    57   28   96 1    
    58   28   97 1    
    59   28   98 1    
    60   29   30 am   BACKBONE|DICT|INTERRES
    61   29   99 1    
    62   30   31 2    
    63   30   32 1    
    64   32   33 1    
    65   32   34 1    
    66   32  100 1    
    67   33  101 1    
    68   33  102 1    
    69   33  103 1    
    70   34   35 am   BACKBONE|DICT|INTERRES
    71   34  104 1    
    72   35   36 2    
    73   37   38 2    
    74   37   39 am   BACKBONE|DICT|INTERRES
    75   39   40 1    
    76   39  105 1    
    77   40   41 1    
    78   40   42 1    
    79   40  106 1    
    80   41  107 1    
    81   41  108 1    
    82   41  109 1    
    83   42   43 2    
    84   42   44 am   BACKBONE|DICT|INTERRES
    85   44   45 1    
    86   44  110 1    
    87   45   46 1    
    88   45   47 1    
    89   45  111 1    
    90   46  112 1    
    91   46  113 1    
    92   46  114 1    
    93   47   48 2    
    94   47   49 am   BACKBONE|DICT|INTERRES
    95   49   50 1    
    96   49  115 1    
    97   50   51 1    
    98   50   52 1    
    99   50  116 1    
   100   51  117 1    
   101   51  118 1    
   102   51  119 1    
   103   52   53 2    
   104   52   54 am   BACKBONE|DICT|INTERRES
   105   54   55 1    
   106   54  120 1    
   107   55   56 1    
   108   55   57 1    
   109   55  121 1    
   110   56  122 1    
   111   56  123 1    
   112   56  124 1    
   113   57   58 2    
   114   57   59 am   BACKBONE|DICT|INTERRES
   115   59   60 1    
   116   59  125 1    
   117   60   61 1    
   118   60   62 1    
   119   60  126 1    
   120   61  127 1    
   121   61  128 1    
   122   61  129 1    
   123   62   63 2    
   124   62   64 am   BACKBONE|DICT|INTERRES
   125   64   65 1    
   126   64  130 1    
   127   65   66 1    
   128   65   69 1    
   129   65  131 1    
   130   66   67 am   BACKBONE|DICT|INTERRES
   131   66   68 2    
   132   67  132 1    
   133   67  133 1    
   134   69   70 1    
   135   69  134 1    
   136   69  135 1    
   137   70   71 1    
   138   71  136 1    
   139   71  137 1    
@<TRIPOS>SUBSTRUCTURE
     1 UNK         1 GROUP             0       ****    0 ROOT    
