@<TRIPOS>MOLECULE
3R136
137   139    1
SMALL
USER_CHARGES


@<TRIPOS>ATOM
      1 CA         27.6022   17.7322    1.7731 C.3       0 UNK        -0.1979 
      2 C          28.0375   19.0358    1.1196 C.2       0 UNK         0.4864 
      3 O          27.9896   19.1519   -0.1063 O.2       0 UNK        -0.5359 
      4 N          28.4701   20.0125    1.9265 N.am      1 UNK        -0.4318 
      5 CA         28.8830   21.3476    1.4827 C.3       1 UNK         0.0824 
      6 C6         29.6267   22.1189    2.6014 C.3       12 UNK        -0.0944 
      7 S7         31.1466   21.2841    3.1806 S.3       12 UNK        -0.2672 
      8 C8         32.3424   21.6017    1.8382 C.3       12 UNK         0.0333 
      9 C9         32.4689   23.0823    1.5117 C.ar      12 UNK        -0.0807 
     10 C10        33.2038   23.9327    2.3402 C.ar      12 UNK        -0.0894 
     11 C11        33.2696   25.3024    2.0689 C.ar      12 UNK        -0.0804 
     12 C12        32.5917   25.8210    0.9598 C.ar      12 UNK        -0.0824 
     13 C13        31.8626   24.9747    0.1122 C.ar      12 UNK        -0.0762 
     14 C14        31.8219   23.6065    0.3909 C.ar      12 UNK        -0.0782 
     15 C15        31.0322   25.4849   -1.0623 C.3       12 UNK         0.0230 
     16 S16        31.5238   27.1030   -1.7459 S.3       12 UNK        -0.2608 
     17 C17        29.8727   27.8381   -2.0569 C.3       12 UNK        -0.0989 
     18 CA         29.3152   28.8554   -1.0103 C.3       5 UNK         0.0716 
     19 N          27.8569   28.7732   -0.8843 N.am      5 UNK        -0.4135 
     20 C          27.0853   29.7426   -0.3719 C.2       4 UNK         0.5031 
     21 O          27.5142   30.8268    0.0236 O.2       4 UNK        -0.5229 
     22 CA         25.5840   29.4345   -0.2493 C.3       4 UNK         0.0329 
     23 CB         24.8829   29.5789   -1.6095 C.3       4 UNK        -0.2001 
     24 N          25.3187   28.1047    0.3068 N.am      4 UNK        -0.4303 
     25 C          25.6422   27.7327    1.5535 C.2       3 UNK         0.5044 
     26 O          26.1976   28.4689    2.3661 O.2       3 UNK        -0.5152 
     27 CA         25.3229   26.2852    1.9589 C.3       3 UNK         0.0319 
     28 CB         23.8663   26.1686    2.4349 C.3       3 UNK        -0.2001 
     29 N          25.5812   25.2835    0.9195 N.am      3 UNK        -0.4354 
     30 C          26.7536   25.0934    0.2995 C.2       2 UNK         0.4964 
     31 O          27.7351   25.8282    0.4300 O.2       2 UNK        -0.5047 
     32 CA         26.8544   23.8650   -0.6165 C.3       2 UNK         0.0288 
     33 CB         27.2305   24.2708   -2.0517 C.3       2 UNK        -0.2113 
     34 N          27.8510   22.9298   -0.0923 N.am      2 UNK        -0.4145 
     35 C          27.6690   22.1652    0.9941 C.2       1 UNK         0.5006 
     36 O          26.6079   22.1119    1.6222 O.2       1 UNK        -0.5103 
     37 C          29.9784   28.8266    0.3834 C.2       5 UNK         0.5055 
     38 O          30.8741   29.6326    0.6349 O.2       5 UNK        -0.5220 
     39 N          29.5046   27.9424    1.2744 N.am      6 UNK        -0.4450 
     40 CA         29.9817   27.8357    2.6544 C.3       6 UNK         0.0367 
     41 CB         29.3382   26.6212    3.3387 C.3       6 UNK        -0.1929 
     42 C          29.7617   29.1222    3.4680 C.2       6 UNK         0.5070 
     43 O          30.6731   29.5481    4.1771 O.2       6 UNK        -0.5237 
     44 N          28.5858   29.7480    3.3133 N.am      7 UNK        -0.4739 
     45 CA         28.2505   31.0450    3.9055 C.3       7 UNK         0.0276 
     46 CB         26.7506   31.3281    3.7287 C.3       7 UNK        -0.1927 
     47 C          29.0880   32.2007    3.3347 C.2       7 UNK         0.5013 
     48 O          29.5184   33.0591    4.1048 O.2       7 UNK        -0.5193 
     49 N          29.3225   32.1971    2.0131 N.am      8 UNK        -0.4253 
     50 CA         30.1707   33.1745    1.3226 C.3       8 UNK         0.0242 
     51 CB         30.0062   33.0332   -0.1989 C.3       8 UNK        -0.2000 
     52 C          31.6511   33.0655    1.7260 C.2       8 UNK         0.4948 
     53 O          32.2944   34.0931    1.9438 O.2       8 UNK        -0.5275 
     54 N          32.1557   31.8290    1.8428 N.am      9 UNK        -0.4246 
     55 CA         33.4950   31.5173    2.3484 C.3       9 UNK         0.0261 
     56 CB         33.8179   30.0441    2.0470 C.3       9 UNK        -0.1959 
     57 C          33.6493   31.7932    3.8546 C.2       9 UNK         0.5033 
     58 O          34.7580   32.0967    4.2972 O.2       9 UNK        -0.5390 
     59 N          32.5442   31.6593    4.6036 N.am      10 UNK        -0.4215 
     60 CA         32.4235   31.7401    6.0630 C.3       10 UNK         0.0240 
     61 CB         32.7507   33.1594    6.5740 C.3       10 UNK        -0.1982 
     62 C          33.2212   30.6311    6.7766 C.2       10 UNK         0.4970 
     63 O          33.7789   30.8667    7.8507 O.2       10 UNK        -0.4916 
     64 N          33.2739   29.4465    6.1547 N.am      11 UNK        -0.4279 
     65 CA         33.9766   28.2634    6.6631 C.3       11 UNK         0.1003 
     66 C          33.1817   27.5043    7.7635 C.2       11 UNK         0.5709 
     67 N          33.8341   26.6013    8.4832 N.am      11 UNK        -0.7358 
     68 O          31.9877   27.7138    7.9714 O.2       11 UNK        -0.4999 
     69 C69        34.4539   27.3481    5.5040 C.3       12 UNK        -0.0954 
     70 S70        33.1173   26.6789    4.4592 S.3       12 UNK        -0.2268 
     71 C71        34.0718   26.2130    2.9842 C.3       12 UNK         0.0203 
     72 H72        27.7167   17.7613    2.8566 H         1 UNK         0.0888 
     73 H73        26.5552   17.5315    1.5482 H         1 UNK         0.0888 
     74 H74        28.1983   16.9035    1.3919 H         1 UNK         0.0888 
     75 H75        28.4809   19.8653    2.9254 H         1 UNK         0.3017 
     76 H76        29.5646   21.2168    0.6400 H         1 UNK         0.0873 
     77 H77        29.8726   23.1340    2.2862 H         1 UNK         0.0745 
     78 H78        28.9734   22.2410    3.4677 H         1 UNK         0.0745 
     79 H79        33.3165   21.2107    2.1352 H         1 UNK         0.0705 
     80 H80        32.0471   21.0346    0.9543 H         1 UNK         0.0705 
     81 H81        33.7062   23.5318    3.2102 H         1 UNK         0.1334 
     82 H82        32.6215   26.8857    0.7742 H         1 UNK         0.1417 
     83 H83        31.2531   22.9479   -0.2502 H         1 UNK         0.1562 
     84 H84        30.0043   25.5359   -0.7094 H         1 UNK         0.0748 
     85 H85        31.0452   24.7589   -1.8769 H         1 UNK         0.0748 
     86 H86        29.1638   27.0230   -2.2066 H         1 UNK         0.0940 
     87 H87        29.9194   28.3298   -3.0299 H         1 UNK         0.0940 
     88 H88        29.5367   29.8480   -1.4091 H         1 UNK         0.0703 
     89 H89        27.4268   27.8919   -1.1225 H         1 UNK         0.3081 
     90 H90        25.1537   30.1712    0.4327 H         1 UNK         0.0719 
     91 H91        25.0597   30.5678   -2.0352 H         1 UNK         0.0809 
     92 H92        25.2391   28.8444   -2.3329 H         1 UNK         0.0809 
     93 H93        23.8037   29.4590   -1.5133 H         1 UNK         0.0809 
     94 H94        24.8629   27.4322   -0.2927 H         1 UNK         0.2990 
     95 H95        25.9705   26.0388    2.8025 H         1 UNK         0.0690 
     96 H96        23.6536   26.8937    3.2220 H         1 UNK         0.0788 
     97 H97        23.6606   25.1799    2.8456 H         1 UNK         0.0788 
     98 H98        23.1592   26.3502    1.6245 H         1 UNK         0.0788 
     99 H99        24.8385   24.6201    0.7503 H         1 UNK         0.2993 
    100 H100       25.8864   23.3599   -0.6509 H         1 UNK         0.0949 
    101 H101       26.5091   24.9808   -2.4582 H         1 UNK         0.0767 
    102 H102       28.2128   24.7391   -2.1018 H         1 UNK         0.0767 
    103 H103       27.2406   23.4061   -2.7156 H         1 UNK         0.0767 
    104 H104       28.7504   22.9340   -0.5473 H         1 UNK         0.3013 
    105 H105       28.7864   27.2821    0.9844 H         1 UNK         0.3121 
    106 H106       31.0577   27.6654    2.6083 H         1 UNK         0.0774 
    107 H107       29.5658   25.7005    2.8008 H         1 UNK         0.0815 
    108 H108       29.7154   26.5045    4.3556 H         1 UNK         0.0815 
    109 H109       28.2544   26.7188    3.3977 H         1 UNK         0.0815 
    110 H110       27.8580   29.3000    2.7611 H         1 UNK         0.2987 
    111 H111       28.4611   30.9851    4.9756 H         1 UNK         0.0949 
    112 H112       26.4664   31.3539    2.6759 H         1 UNK         0.0806 
    113 H113       26.1442   30.5664    4.2191 H         1 UNK         0.0806 
    114 H114       26.4786   32.2897    4.1660 H         1 UNK         0.0806 
    115 H115       28.8857   31.4824    1.4397 H         1 UNK         0.3010 
    116 H116       29.8250   34.1707    1.6071 H         1 UNK         0.0829 
    117 H117       30.3184   32.0498   -0.5503 H         1 UNK         0.0813 
    118 H118       28.9694   33.1825   -0.5009 H         1 UNK         0.0813 
    119 H119       30.6077   33.7745   -0.7267 H         1 UNK         0.0813 
    120 H120       31.5808   31.0371    1.5553 H         1 UNK         0.3038 
    121 H121       34.2143   32.1449    1.8183 H         1 UNK         0.0769 
    122 H122       33.1107   29.3707    2.5334 H         1 UNK         0.0811 
    123 H123       34.8162   29.7809    2.3992 H         1 UNK         0.0811 
    124 H124       33.7859   29.8415    0.9763 H         1 UNK         0.0811 
    125 H125       31.7126   31.3125    4.1366 H         1 UNK         0.3204 
    126 H126       31.3733   31.5452    6.2856 H         1 UNK         0.0748 
    127 H127       32.5224   33.2544    7.6362 H         1 UNK         0.0771 
    128 H128       33.8051   33.4053    6.4450 H         1 UNK         0.0771 
    129 H129       32.1630   33.9123    6.0482 H         1 UNK         0.0771 
    130 H130       32.7147   29.3082    5.3230 H         1 UNK         0.2980 
    131 H131       34.8814   28.6244    7.1564 H         1 UNK         0.0545 
    132 H132       34.8117   26.4149    8.3255 H         1 UNK         0.3459 
    133 H133       33.3368   26.0952    9.1990 H         1 UNK         0.3459 
    134 H134       35.0391   26.5120    5.8900 H         1 UNK         0.0616 
    135 H135       35.1350   27.9133    4.8655 H         1 UNK         0.0616 
    136 H136       34.9865   25.7039    3.2907 H         1 UNK         0.0634 
    137 H137       34.3824   27.1135    2.4539 H         1 UNK         0.0634 
@<TRIPOS>BOND
     1    1    2 1    
     2    1   72 1    
     3    1   73 1    
     4    1   74 1    
     5    2    3 2    
     6    2    4 am   BACKBONE|DICT|INTERRES
     7    4    5 1    
     8    4   75 1    
     9    5    6 1    
    10    5   35 1    
    11    5   76 1    
    12    6    7 1    
    13    6   77 1    
    14    6   78 1    
    15    7    8 1    
    16    8    9 1    
    17    8   79 1    
    18    8   80 1    
    19    9   10 ar   
    20    9   14 ar   
    21   10   11 ar   
    22   10   81 1    
    23   11   12 ar   
    24   11   71 1    
    25   12   13 ar   
    26   12   82 1    
    27   13   14 ar   
    28   13   15 1    
    29   14   83 1    
    30   15   16 1    
    31   15   84 1    
    32   15   85 1    
    33   16   17 1    
    34   17   18 1    
    35   17   86 1    
    36   17   87 1    
    37   18   19 1    
    38   18   37 1    
    39   18   88 1    
    40   19   20 am   BACKBONE|DICT|INTERRES
    41   19   89 1    
    42   20   21 2    
    43   20   22 1    
    44   22   23 1    
    45   22   24 1    
    46   22   90 1    
    47   23   91 1    
    48   23   92 1    
    49   23   93 1    
    50   24   25 am   BACKBONE|DICT|INTERRES
    51   24   94 1    
    52   25   26 2    
    53   25   27 1    
    54   27   28 1    
    55   27   29 1    
    56   27   95 1    
    57   28   96 1    
    58   28   97 1    
    59   28   98 1    
    60   29   30 am   BACKBONE|DICT|INTERRES
    61   29   99 1    
    62   30   31 2    
    63   30   32 1    
    64   32   33 1    
    65   32   34 1    
    66   32  100 1    
    67   33  101 1    
    68   33  102 1    
    69   33  103 1    
    70   34   35 am   BACKBONE|DICT|INTERRES
    71   34  104 1    
    72   35   36 2    
    73   37   38 2    
    74   37   39 am   BACKBONE|DICT|INTERRES
    75   39   40 1    
    76   39  105 1    
    77   40   41 1    
    78   40   42 1    
    79   40  106 1    
    80   41  107 1    
    81   41  108 1    
    82   41  109 1    
    83   42   43 2    
    84   42   44 am   BACKBONE|DICT|INTERRES
    85   44   45 1    
    86   44  110 1    
    87   45   46 1    
    88   45   47 1    
    89   45  111 1    
    90   46  112 1    
    91   46  113 1    
    92   46  114 1    
    93   47   48 2    
    94   47   49 am   BACKBONE|DICT|INTERRES
    95   49   50 1    
    96   49  115 1    
    97   50   51 1    
    98   50   52 1    
    99   50  116 1    
   100   51  117 1    
   101   51  118 1    
   102   51  119 1    
   103   52   53 2    
   104   52   54 am   BACKBONE|DICT|INTERRES
   105   54   55 1    
   106   54  120 1    
   107   55   56 1    
   108   55   57 1    
   109   55  121 1    
   110   56  122 1    
   111   56  123 1    
   112   56  124 1    
   113   57   58 2    
   114   57   59 am   BACKBONE|DICT|INTERRES
   115   59   60 1    
   116   59  125 1    
   117   60   61 1    
   118   60   62 1    
   119   60  126 1    
   120   61  127 1    
   121   61  128 1    
   122   61  129 1    
   123   62   63 2    
   124   62   64 am   BACKBONE|DICT|INTERRES
   125   64   65 1    
   126   64  130 1    
   127   65   66 1    
   128   65   69 1    
   129   65  131 1    
   130   66   67 am   BACKBONE|DICT|INTERRES
   131   66   68 2    
   132   67  132 1    
   133   67  133 1    
   134   69   70 1    
   135   69  134 1    
   136   69  135 1    
   137   70   71 1    
   138   71  136 1    
   139   71  137 1    
@<TRIPOS>SUBSTRUCTURE
     1 UNK         1 GROUP             0       ****    0 ROOT    
