@<TRIPOS>MOLECULE
3R136
137   139    1
SMALL
USER_CHARGES


@<TRIPOS>ATOM
      1 CA         28.6363   20.7898    2.0747 C.3       0 UNK        -0.1979 
      2 C          28.4129   21.8182    0.9752 C.2       0 UNK         0.4864 
      3 O          28.1715   22.9852    1.2835 O.2       0 UNK        -0.5359 
      4 N          28.4871   21.3711   -0.2888 N.am      1 UNK        -0.4318 
      5 CA         28.2250   22.0923   -1.5469 C.3       1 UNK         0.0824 
      6 C6         29.3913   23.0106   -2.0362 C.3       12 UNK        -0.0944 
      7 S7         29.8701   24.4035   -0.9487 S.3       12 UNK        -0.2672 
      8 C8         31.5588   23.8985   -0.4802 C.3       12 UNK         0.0333 
      9 C9         31.9423   24.3721    0.9135 C.ar      12 UNK        -0.0807 
     10 C10        32.6871   25.5408    1.0959 C.ar      12 UNK        -0.0894 
     11 C11        33.0932   25.9285    2.3777 C.ar      12 UNK        -0.0804 
     12 C12        32.7315   25.1500    3.4825 C.ar      12 UNK        -0.0824 
     13 C13        31.9725   23.9881    3.3132 C.ar      12 UNK        -0.0762 
     14 C14        31.5935   23.6012    2.0251 C.ar      12 UNK        -0.0782 
     15 C15        31.5617   23.1471    4.5153 C.3       12 UNK         0.0230 
     16 S16        29.7521   23.1024    4.7406 S.3       12 UNK        -0.2608 
     17 C17        29.3815   24.8451    5.1310 C.3       12 UNK        -0.0989 
     18 CA         29.0055   25.6790    3.8747 C.3       5 UNK         0.0716 
     19 N          27.8530   25.1498    3.1336 N.am      5 UNK        -0.4135 
     20 C          26.5654   25.1783    3.5036 C.2       4 UNK         0.5031 
     21 O          26.1598   25.6399    4.5725 O.2       4 UNK        -0.5229 
     22 CA         25.5672   24.6153    2.4699 C.3       4 UNK         0.0329 
     23 CB         24.0960   24.7121    2.9279 C.3       4 UNK        -0.2001 
     24 N          25.7446   25.2239    1.1424 N.am      4 UNK        -0.4303 
     25 C          25.6407   26.5286    0.8329 C.2       3 UNK         0.5044 
     26 O          25.3260   27.4007    1.6412 O.2       3 UNK        -0.5152 
     27 CA         25.9616   26.9633   -0.6098 C.3       3 UNK         0.0319 
     28 CB         27.2927   27.7277   -0.6585 C.3       3 UNK        -0.2001 
     29 N          26.0298   25.8542   -1.5570 N.am      3 UNK        -0.4354 
     30 C          24.9681   25.2545   -2.1119 C.2       2 UNK         0.4964 
     31 O          23.8023   25.5966   -1.9119 O.2       2 UNK        -0.5047 
     32 CA         25.2578   24.0646   -3.0445 C.3       2 UNK         0.0288 
     33 CB         25.2291   24.5135   -4.5149 C.3       2 UNK        -0.2113 
     34 N          26.5384   23.4028   -2.7669 N.am      2 UNK        -0.4145 
     35 C          26.8160   22.7286   -1.6409 C.2       1 UNK         0.5006 
     36 O          25.9880   22.5791   -0.7381 O.2       1 UNK        -0.5103 
     37 C          28.8789   27.1877    4.1824 C.2       5 UNK         0.5055 
     38 O          29.1320   27.6160    5.3100 O.2       5 UNK        -0.5220 
     39 N          28.5032   27.9719    3.1660 N.am      6 UNK        -0.4450 
     40 CA         28.4005   29.4307    3.2302 C.3       6 UNK         0.0367 
     41 CB         26.9936   29.8414    3.7065 C.3       6 UNK        -0.1929 
     42 C          28.7871   30.0548    1.8806 C.2       6 UNK         0.5070 
     43 O          28.1967   31.0565    1.4753 O.2       6 UNK        -0.5237 
     44 N          29.7586   29.4404    1.1874 N.am      7 UNK        -0.4739 
     45 CA         30.2547   29.8860   -0.1214 C.3       7 UNK         0.0276 
     46 CB         31.0908   28.7609   -0.7543 C.3       7 UNK        -0.1927 
     47 C          31.0643   31.1952   -0.0519 C.2       7 UNK         0.5013 
     48 O          31.1481   31.9128   -1.0493 O.2       7 UNK        -0.5193 
     49 N          31.6272   31.4828    1.1243 N.am      8 UNK        -0.4253 
     50 CA         32.3473   32.6940    1.4885 C.3       8 UNK         0.0242 
     51 CB         33.8127   32.5855    1.0267 C.3       8 UNK        -0.2000 
     52 C          32.2579   32.8334    3.0123 C.2       8 UNK         0.4948 
     53 O          31.9232   31.8610    3.6953 O.2       8 UNK        -0.5275 
     54 N          32.6118   34.0156    3.5348 N.am      9 UNK        -0.4246 
     55 CA         32.6671   34.3011    4.9768 C.3       9 UNK         0.0261 
     56 CB         33.0001   35.7863    5.1925 C.3       9 UNK        -0.1959 
     57 C          33.6588   33.4077    5.7488 C.2       9 UNK         0.5033 
     58 O          33.4392   33.1327    6.9292 O.2       9 UNK        -0.5390 
     59 N          34.7051   32.9379    5.0549 N.am      10 UNK        -0.4215 
     60 CA         35.6956   31.9793    5.5465 C.3       10 UNK         0.0240 
     61 CB         36.8496   31.8955    4.5333 C.3       10 UNK        -0.1982 
     62 C          35.1315   30.5730    5.8304 C.2       10 UNK         0.4970 
     63 O          35.7751   29.8222    6.5649 O.2       10 UNK        -0.4916 
     64 N          33.9676   30.2291    5.2582 N.am      11 UNK        -0.4279 
     65 CA         33.2916   28.9410    5.4822 C.3       11 UNK         0.1003 
     66 C          32.6175   28.8074    6.8788 C.2       11 UNK         0.5709 
     67 N          32.4396   29.8822    7.6402 N.am      11 UNK        -0.7358 
     68 O          32.2712   27.7018    7.2873 O.2       11 UNK        -0.4999 
     69 C69        32.2882   28.5932    4.3507 C.3       12 UNK        -0.0954 
     70 S70        32.9935   28.6937    2.6718 S.3       12 UNK        -0.2268 
     71 C71        33.9653   27.1615    2.5613 C.3       12 UNK         0.0203 
     72 H72        27.8966   20.9215    2.8642 H         1 UNK         0.0888 
     73 H73        28.5506   19.7696    1.7013 H         1 UNK         0.0888 
     74 H74        29.6248   20.9101    2.5150 H         1 UNK         0.0888 
     75 H75        28.6775   20.3878   -0.4194 H         1 UNK         0.3017 
     76 H76        28.1706   21.2865   -2.2808 H         1 UNK         0.0873 
     77 H77        29.1733   23.4276   -3.0200 H         1 UNK         0.0745 
     78 H78        30.2650   22.3824   -2.2122 H         1 UNK         0.0745 
     79 H79        32.2628   24.2784   -1.2220 H         1 UNK         0.0705 
     80 H80        31.6464   22.8115   -0.5070 H         1 UNK         0.0705 
     81 H81        32.9719   26.1358    0.2389 H         1 UNK         0.1334 
     82 H82        33.0449   25.4477    4.4739 H         1 UNK         0.1417 
     83 H83        31.0177   22.6986    1.8882 H         1 UNK         0.1562 
     84 H84        32.0291   23.5142    5.4304 H         1 UNK         0.0748 
     85 H85        31.9233   22.1276    4.3749 H         1 UNK         0.0748 
     86 H86        30.2482   25.2756    5.6370 H         1 UNK         0.0940 
     87 H87        28.5676   24.8691    5.8577 H         1 UNK         0.0940 
     88 H88        29.8379   25.6166    3.1753 H         1 UNK         0.0703 
     89 H89        28.0757   24.6269    2.2882 H         1 UNK         0.3081 
     90 H90        25.8015   23.5559    2.3576 H         1 UNK         0.0719 
     91 H91        23.7894   25.7443    3.1002 H         1 UNK         0.0809 
     92 H92        23.9435   24.1690    3.8614 H         1 UNK         0.0809 
     93 H93        23.4222   24.2807    2.1878 H         1 UNK         0.0809 
     94 H94        26.0211   24.5773    0.4130 H         1 UNK         0.2990 
     95 H95        25.1696   27.6443   -0.9293 H         1 UNK         0.0690 
     96 H96        27.5405   28.0371   -1.6740 H         1 UNK         0.0788 
     97 H97        28.1208   27.1287   -0.2773 H         1 UNK         0.0788 
     98 H98        27.2300   28.6339   -0.0573 H         1 UNK         0.0788 
     99 H99        26.9504   25.5046   -1.7809 H         1 UNK         0.2993 
    100 H100       24.4606   23.3333   -2.8923 H         1 UNK         0.0949 
    101 H101       24.2770   24.9870   -4.7596 H         1 UNK         0.0767 
    102 H102       26.0173   25.2354   -4.7329 H         1 UNK         0.0767 
    103 H103       25.3502   23.6672   -5.1914 H         1 UNK         0.0767 
    104 H104       27.2454   23.4700   -3.4849 H         1 UNK         0.3013 
    105 H105       28.2719   27.5475    2.2789 H         1 UNK         0.3121 
    106 H106       29.1255   29.8134    3.9514 H         1 UNK         0.0774 
    107 H107       26.9204   30.9226    3.8289 H         1 UNK         0.0815 
    108 H108       26.2259   29.5394    2.9939 H         1 UNK         0.0815 
    109 H109       26.7524   29.3903    4.6691 H         1 UNK         0.0815 
    110 H110       30.2267   28.6469    1.6021 H         1 UNK         0.2987 
    111 H111       29.3923   30.0738   -0.7648 H         1 UNK         0.0949 
    112 H112       30.5154   27.8403   -0.8539 H         1 UNK         0.0806 
    113 H113       31.4255   29.0415   -1.7538 H         1 UNK         0.0806 
    114 H114       31.9810   28.5378   -0.1660 H         1 UNK         0.0806 
    115 H115       31.4835   30.8516    1.9044 H         1 UNK         0.3010 
    116 H116       31.8655   33.5577    1.0255 H         1 UNK         0.0829 
    117 H117       33.8787   32.4600   -0.0542 H         1 UNK         0.0813 
    118 H118       34.3770   33.4836    1.2796 H         1 UNK         0.0813 
    119 H119       34.3175   31.7366    1.4906 H         1 UNK         0.0813 
    120 H120       32.8726   34.7677    2.9123 H         1 UNK         0.3038 
    121 H121       31.6737   34.1095    5.3880 H         1 UNK         0.0769 
    122 H122       33.9741   36.0478    4.7769 H         1 UNK         0.0811 
    123 H123       33.0239   36.0298    6.2558 H         1 UNK         0.0811 
    124 H124       32.2525   36.4324    4.7320 H         1 UNK         0.0811 
    125 H125       34.7987   33.2294    4.0935 H         1 UNK         0.3204 
    126 H126       36.0918   32.3643    6.4885 H         1 UNK         0.0748 
    127 H127       37.6284   31.2159    4.8828 H         1 UNK         0.0771 
    128 H128       36.5095   31.5292    3.5635 H         1 UNK         0.0771 
    129 H129       37.3177   32.8683    4.3814 H         1 UNK         0.0771 
    130 H130       33.4643   30.8929    4.6808 H         1 UNK         0.2980 
    131 H131       34.0642   28.1707    5.4644 H         1 UNK         0.0545 
    132 H132       32.7327   30.7943    7.3214 H         1 UNK         0.3459 
    133 H133       32.0094   29.7782    8.5452 H         1 UNK         0.3459 
    134 H134       31.4390   29.2762    4.3886 H         1 UNK         0.0616 
    135 H135       31.8734   27.5962    4.4973 H         1 UNK         0.0616 
    136 H136       34.5967   27.0590    3.4444 H         1 UNK         0.0634 
    137 H137       34.6486   27.2500    1.7155 H         1 UNK         0.0634 
@<TRIPOS>BOND
     1    1    2 1    
     2    1   72 1    
     3    1   73 1    
     4    1   74 1    
     5    2    3 2    
     6    2    4 am   BACKBONE|DICT|INTERRES
     7    4    5 1    
     8    4   75 1    
     9    5    6 1    
    10    5   35 1    
    11    5   76 1    
    12    6    7 1    
    13    6   77 1    
    14    6   78 1    
    15    7    8 1    
    16    8    9 1    
    17    8   79 1    
    18    8   80 1    
    19    9   10 ar   
    20    9   14 ar   
    21   10   11 ar   
    22   10   81 1    
    23   11   12 ar   
    24   11   71 1    
    25   12   13 ar   
    26   12   82 1    
    27   13   14 ar   
    28   13   15 1    
    29   14   83 1    
    30   15   16 1    
    31   15   84 1    
    32   15   85 1    
    33   16   17 1    
    34   17   18 1    
    35   17   86 1    
    36   17   87 1    
    37   18   19 1    
    38   18   37 1    
    39   18   88 1    
    40   19   20 am   BACKBONE|DICT|INTERRES
    41   19   89 1    
    42   20   21 2    
    43   20   22 1    
    44   22   23 1    
    45   22   24 1    
    46   22   90 1    
    47   23   91 1    
    48   23   92 1    
    49   23   93 1    
    50   24   25 am   BACKBONE|DICT|INTERRES
    51   24   94 1    
    52   25   26 2    
    53   25   27 1    
    54   27   28 1    
    55   27   29 1    
    56   27   95 1    
    57   28   96 1    
    58   28   97 1    
    59   28   98 1    
    60   29   30 am   BACKBONE|DICT|INTERRES
    61   29   99 1    
    62   30   31 2    
    63   30   32 1    
    64   32   33 1    
    65   32   34 1    
    66   32  100 1    
    67   33  101 1    
    68   33  102 1    
    69   33  103 1    
    70   34   35 am   BACKBONE|DICT|INTERRES
    71   34  104 1    
    72   35   36 2    
    73   37   38 2    
    74   37   39 am   BACKBONE|DICT|INTERRES
    75   39   40 1    
    76   39  105 1    
    77   40   41 1    
    78   40   42 1    
    79   40  106 1    
    80   41  107 1    
    81   41  108 1    
    82   41  109 1    
    83   42   43 2    
    84   42   44 am   BACKBONE|DICT|INTERRES
    85   44   45 1    
    86   44  110 1    
    87   45   46 1    
    88   45   47 1    
    89   45  111 1    
    90   46  112 1    
    91   46  113 1    
    92   46  114 1    
    93   47   48 2    
    94   47   49 am   BACKBONE|DICT|INTERRES
    95   49   50 1    
    96   49  115 1    
    97   50   51 1    
    98   50   52 1    
    99   50  116 1    
   100   51  117 1    
   101   51  118 1    
   102   51  119 1    
   103   52   53 2    
   104   52   54 am   BACKBONE|DICT|INTERRES
   105   54   55 1    
   106   54  120 1    
   107   55   56 1    
   108   55   57 1    
   109   55  121 1    
   110   56  122 1    
   111   56  123 1    
   112   56  124 1    
   113   57   58 2    
   114   57   59 am   BACKBONE|DICT|INTERRES
   115   59   60 1    
   116   59  125 1    
   117   60   61 1    
   118   60   62 1    
   119   60  126 1    
   120   61  127 1    
   121   61  128 1    
   122   61  129 1    
   123   62   63 2    
   124   62   64 am   BACKBONE|DICT|INTERRES
   125   64   65 1    
   126   64  130 1    
   127   65   66 1    
   128   65   69 1    
   129   65  131 1    
   130   66   67 am   BACKBONE|DICT|INTERRES
   131   66   68 2    
   132   67  132 1    
   133   67  133 1    
   134   69   70 1    
   135   69  134 1    
   136   69  135 1    
   137   70   71 1    
   138   71  136 1    
   139   71  137 1    
@<TRIPOS>SUBSTRUCTURE
     1 UNK         1 GROUP             0       ****    0 ROOT    
