@<TRIPOS>MOLECULE
3R136
137   139    1
SMALL
USER_CHARGES


@<TRIPOS>ATOM
      1 CA         28.5982   26.3443   -3.4630 C.3       0 UNK        -0.1979 
      2 C          28.3506   25.6381   -2.1390 C.2       0 UNK         0.4864 
      3 O          27.8711   26.2638   -1.1941 O.2       0 UNK        -0.5359 
      4 N          28.6838   24.3466   -2.0584 N.am      1 UNK        -0.4318 
      5 CA         28.4248   23.4887   -0.8976 C.3       1 UNK         0.0824 
      6 C6         29.5471   22.4425   -0.6969 C.3       12 UNK        -0.0944 
      7 S7         31.1849   23.2203   -0.4729 S.3       12 UNK        -0.2672 
      8 C8         31.8161   22.4105    1.0289 C.3       12 UNK         0.0333 
      9 C9         31.7426   23.3163    2.2501 C.ar      12 UNK        -0.0807 
     10 C10        32.8043   24.1831    2.5335 C.ar      12 UNK        -0.0894 
     11 C11        32.8123   24.9425    3.7074 C.ar      12 UNK        -0.0804 
     12 C12        31.7360   24.8363    4.5924 C.ar      12 UNK        -0.0824 
     13 C13        30.6470   24.0078    4.3031 C.ar      12 UNK        -0.0762 
     14 C14        30.6562   23.2452    3.1299 C.ar      12 UNK        -0.0782 
     15 C15        29.4874   23.9155    5.2904 C.3       12 UNK         0.0230 
     16 S16        27.9706   24.7554    4.7179 S.3       12 UNK        -0.2608 
     17 C17        28.5790   26.3898    4.1759 C.3       12 UNK        -0.0989 
     18 CA         28.5483   26.4928    2.6249 C.3       5 UNK         0.0716 
     19 N          27.2428   26.9191    2.1199 N.am      5 UNK        -0.4135 
     20 C          26.3114   26.0961    1.6315 C.2       4 UNK         0.5031 
     21 O          26.4271   24.8674    1.6207 O.2       4 UNK        -0.5229 
     22 CA         25.0504   26.7339    1.0216 C.3       4 UNK         0.0329 
     23 CB         25.2889   28.1204    0.3847 C.3       4 UNK        -0.2001 
     24 N          24.5532   25.7940    0.0262 N.am      4 UNK        -0.4303 
     25 C          23.3073   25.6683   -0.4384 C.2       3 UNK         0.5044 
     26 O          22.3841   26.4343   -0.1602 O.2       3 UNK        -0.5152 
     27 CA         23.0489   24.4611   -1.3624 C.3       3 UNK         0.0319 
     28 CB         23.1553   24.8810   -2.8371 C.3       3 UNK        -0.2001 
     29 N          23.9805   23.3553   -1.1109 N.am      3 UNK        -0.4354 
     30 C          23.9717   22.5763   -0.0208 C.2       2 UNK         0.4964 
     31 O          23.0785   22.6009    0.8263 O.2       2 UNK        -0.5047 
     32 CA         25.1794   21.6448    0.1893 C.3       2 UNK         0.0288 
     33 CB         25.0755   20.3725   -0.6757 C.3       2 UNK        -0.2113 
     34 N          26.4815   22.3171    0.0396 N.am      2 UNK        -0.4145 
     35 C          27.0562   22.7978   -1.0725 C.2       1 UNK         0.5006 
     36 O          26.5461   22.7142   -2.1942 O.2       1 UNK        -0.5103 
     37 C          29.6191   27.4153    2.0223 C.2       5 UNK         0.5055 
     38 O          30.3518   28.0738    2.7594 O.2       5 UNK        -0.5220 
     39 N          29.6704   27.4386    0.6804 N.am      6 UNK        -0.4450 
     40 CA         30.6850   28.0720   -0.1673 C.3       6 UNK         0.0367 
     41 CB         31.9739   27.2187   -0.1510 C.3       6 UNK        -0.1929 
     42 C          30.9047   29.5625    0.1592 C.2       6 UNK         0.5070 
     43 O          29.9317   30.3165    0.2364 O.2       6 UNK        -0.5237 
     44 N          32.1680   29.9693    0.3348 N.am      7 UNK        -0.4739 
     45 CA         32.5698   31.3030    0.7722 C.3       7 UNK         0.0276 
     46 CB         34.0411   31.5355    0.3810 C.3       7 UNK        -0.1927 
     47 C          32.3459   31.4381    2.2859 C.2       7 UNK         0.5013 
     48 O          33.2934   31.2903    3.0592 O.2       7 UNK        -0.5193 
     49 N          31.0936   31.7033    2.6817 N.am      8 UNK        -0.4253 
     50 CA         30.6177   31.7745    4.0700 C.3       8 UNK         0.0242 
     51 CB         29.1314   32.1643    4.0757 C.3       8 UNK        -0.2000 
     52 C          31.4223   32.7067    4.9955 C.2       8 UNK         0.4948 
     53 O          31.5305   32.4196    6.1869 O.2       8 UNK        -0.5275 
     54 N          32.0097   33.7729    4.4339 N.am      9 UNK        -0.4246 
     55 CA         32.9228   34.6862    5.1272 C.3       9 UNK         0.0261 
     56 CB         33.2118   35.8939    4.2207 C.3       9 UNK        -0.1959 
     57 C          34.2420   34.0279    5.5807 C.2       9 UNK         0.5033 
     58 O          34.8313   34.4927    6.5578 O.2       9 UNK        -0.5390 
     59 N          34.6805   32.9747    4.8774 N.am      10 UNK        -0.4215 
     60 CA         35.8566   32.1725    5.2140 C.3       10 UNK         0.0240 
     61 CB         36.6484   31.8613    3.9323 C.3       10 UNK        -0.1982 
     62 C          35.4483   30.8745    5.9262 C.2       10 UNK         0.4970 
     63 O          36.0879   30.5053    6.9119 O.2       10 UNK        -0.4916 
     64 N          34.4027   30.2074    5.4189 N.am      11 UNK        -0.4279 
     65 CA         33.8592   28.9564    5.9676 C.3       11 UNK         0.1003 
     66 C          33.1808   29.0954    7.3601 C.2       11 UNK         0.5709 
     67 N          32.6352   30.2466    7.7309 N.am      11 UNK        -0.7358 
     68 O          33.1588   28.1344    8.1253 O.2       11 UNK        -0.4999 
     69 C69        32.9125   28.2571    4.9589 C.3       12 UNK        -0.0954 
     70 S70        33.8033   27.5547    3.5301 S.3       12 UNK        -0.2268 
     71 C71        34.0142   25.8191    4.0472 C.3       12 UNK         0.0203 
     72 H72        29.2929   27.1718   -3.3245 H         1 UNK         0.0888 
     73 H73        29.0162   25.6715   -4.2116 H         1 UNK         0.0888 
     74 H74        27.6628   26.7456   -3.8518 H         1 UNK         0.0888 
     75 H75        29.0469   23.8731   -2.8729 H         1 UNK         0.3017 
     76 H76        28.3796   24.1043    0.0030 H         1 UNK         0.0873 
     77 H77        29.6075   21.7699   -1.5549 H         1 UNK         0.0745 
     78 H78        29.3225   21.8136    0.1660 H         1 UNK         0.0745 
     79 H79        31.2939   21.4714    1.2157 H         1 UNK         0.0705 
     80 H80        32.8559   22.1319    0.8508 H         1 UNK         0.0705 
     81 H81        33.6440   24.2398    1.8542 H         1 UNK         0.1334 
     82 H82        31.7456   25.3905    5.5191 H         1 UNK         0.1417 
     83 H83        29.8294   22.5816    2.9162 H         1 UNK         0.1562 
     84 H84        29.7726   24.3365    6.2558 H         1 UNK         0.0748 
     85 H85        29.2569   22.8659    5.4778 H         1 UNK         0.0748 
     86 H86        29.5797   26.5394    4.5814 H         1 UNK         0.0940 
     87 H87        27.9661   27.1704    4.6291 H         1 UNK         0.0940 
     88 H88        28.7975   25.5108    2.2151 H         1 UNK         0.0703 
     89 H89        27.0968   27.9167    2.0609 H         1 UNK         0.3081 
     90 H90        24.3109   26.8246    1.8195 H         1 UNK         0.0719 
     91 H91        24.3887   28.4897   -0.1067 H         1 UNK         0.0809 
     92 H92        26.0822   28.0903   -0.3632 H         1 UNK         0.0809 
     93 H93        25.5632   28.8639    1.1334 H         1 UNK         0.0809 
     94 H94        25.2238   25.0742   -0.2091 H         1 UNK         0.2990 
     95 H95        22.0328   24.1076   -1.1747 H         1 UNK         0.0690 
     96 H96        22.9146   24.0526   -3.5036 H         1 UNK         0.0788 
     97 H97        24.1581   25.2317   -3.0855 H         1 UNK         0.0788 
     98 H98        22.4602   25.6909   -3.0632 H         1 UNK         0.0788 
     99 H99        24.7592   23.2424   -1.7550 H         1 UNK         0.2993 
    100 H100       25.1407   21.3264    1.2326 H         1 UNK         0.0949 
    101 H101       25.9070   19.6944   -0.4834 H         1 UNK         0.0767 
    102 H102       24.1562   19.8291   -0.4537 H         1 UNK         0.0767 
    103 H103       25.0654   20.5968   -1.7425 H         1 UNK         0.0767 
    104 H104       26.9393   22.5262    0.9176 H         1 UNK         0.3013 
    105 H105       28.9510   26.9337    0.1640 H         1 UNK         0.3121 
    106 H106       30.2884   28.0490   -1.1826 H         1 UNK         0.0774 
    107 H107       32.7149   27.5927   -0.8584 H         1 UNK         0.0815 
    108 H108       32.4313   27.1912    0.8387 H         1 UNK         0.0815 
    109 H109       31.7604   26.1893   -0.4374 H         1 UNK         0.0815 
    110 H110       32.8982   29.2728    0.2993 H         1 UNK         0.2987 
    111 H111       31.9603   32.0535    0.2636 H         1 UNK         0.0949 
    112 H112       34.1752   31.4927   -0.6999 H         1 UNK         0.0806 
    113 H113       34.3814   32.5180    0.7110 H         1 UNK         0.0806 
    114 H114       34.7041   30.7945    0.8302 H         1 UNK         0.0806 
    115 H115       30.3812   31.7212    1.9621 H         1 UNK         0.3010 
    116 H116       30.7004   30.7679    4.4831 H         1 UNK         0.0829 
    117 H117       28.5300   31.4398    3.5258 H         1 UNK         0.0813 
    118 H118       28.7403   32.2001    5.0937 H         1 UNK         0.0813 
    119 H119       28.9695   33.1458    3.6285 H         1 UNK         0.0813 
    120 H120       31.8604   33.9351    3.4487 H         1 UNK         0.3038 
    121 H121       32.4140   35.0456    6.0243 H         1 UNK         0.0769 
    122 H122       33.8673   36.6085    4.7207 H         1 UNK         0.0811 
    123 H123       32.2958   36.4251    3.9613 H         1 UNK         0.0811 
    124 H124       33.7031   35.5953    3.2937 H         1 UNK         0.0811 
    125 H125       34.1058   32.6183    4.1180 H         1 UNK         0.3204 
    126 H126       36.5129   32.7306    5.8852 H         1 UNK         0.0748 
    127 H127       37.5374   31.2706    4.1572 H         1 UNK         0.0771 
    128 H128       36.0547   31.2962    3.2124 H         1 UNK         0.0771 
    129 H129       36.9825   32.7765    3.4432 H         1 UNK         0.0771 
    130 H130       33.9551   30.5553    4.5743 H         1 UNK         0.2980 
    131 H131       34.7098   28.2910    6.1288 H         1 UNK         0.0545 
    132 H132       32.5524   31.0287    7.0899 H         1 UNK         0.3459 
    133 H133       32.2106   30.3104    8.6417 H         1 UNK         0.3459 
    134 H134       32.1732   28.9642    4.5829 H         1 UNK         0.0616 
    135 H135       32.3398   27.4674    5.4402 H         1 UNK         0.0616 
    136 H136       34.9052   25.4244    3.5568 H         1 UNK         0.0634 
    137 H137       34.2212   25.7774    5.1176 H         1 UNK         0.0634 
@<TRIPOS>BOND
     1    1    2 1    
     2    1   72 1    
     3    1   73 1    
     4    1   74 1    
     5    2    3 2    
     6    2    4 am   BACKBONE|DICT|INTERRES
     7    4    5 1    
     8    4   75 1    
     9    5    6 1    
    10    5   35 1    
    11    5   76 1    
    12    6    7 1    
    13    6   77 1    
    14    6   78 1    
    15    7    8 1    
    16    8    9 1    
    17    8   79 1    
    18    8   80 1    
    19    9   10 ar   
    20    9   14 ar   
    21   10   11 ar   
    22   10   81 1    
    23   11   12 ar   
    24   11   71 1    
    25   12   13 ar   
    26   12   82 1    
    27   13   14 ar   
    28   13   15 1    
    29   14   83 1    
    30   15   16 1    
    31   15   84 1    
    32   15   85 1    
    33   16   17 1    
    34   17   18 1    
    35   17   86 1    
    36   17   87 1    
    37   18   19 1    
    38   18   37 1    
    39   18   88 1    
    40   19   20 am   BACKBONE|DICT|INTERRES
    41   19   89 1    
    42   20   21 2    
    43   20   22 1    
    44   22   23 1    
    45   22   24 1    
    46   22   90 1    
    47   23   91 1    
    48   23   92 1    
    49   23   93 1    
    50   24   25 am   BACKBONE|DICT|INTERRES
    51   24   94 1    
    52   25   26 2    
    53   25   27 1    
    54   27   28 1    
    55   27   29 1    
    56   27   95 1    
    57   28   96 1    
    58   28   97 1    
    59   28   98 1    
    60   29   30 am   BACKBONE|DICT|INTERRES
    61   29   99 1    
    62   30   31 2    
    63   30   32 1    
    64   32   33 1    
    65   32   34 1    
    66   32  100 1    
    67   33  101 1    
    68   33  102 1    
    69   33  103 1    
    70   34   35 am   BACKBONE|DICT|INTERRES
    71   34  104 1    
    72   35   36 2    
    73   37   38 2    
    74   37   39 am   BACKBONE|DICT|INTERRES
    75   39   40 1    
    76   39  105 1    
    77   40   41 1    
    78   40   42 1    
    79   40  106 1    
    80   41  107 1    
    81   41  108 1    
    82   41  109 1    
    83   42   43 2    
    84   42   44 am   BACKBONE|DICT|INTERRES
    85   44   45 1    
    86   44  110 1    
    87   45   46 1    
    88   45   47 1    
    89   45  111 1    
    90   46  112 1    
    91   46  113 1    
    92   46  114 1    
    93   47   48 2    
    94   47   49 am   BACKBONE|DICT|INTERRES
    95   49   50 1    
    96   49  115 1    
    97   50   51 1    
    98   50   52 1    
    99   50  116 1    
   100   51  117 1    
   101   51  118 1    
   102   51  119 1    
   103   52   53 2    
   104   52   54 am   BACKBONE|DICT|INTERRES
   105   54   55 1    
   106   54  120 1    
   107   55   56 1    
   108   55   57 1    
   109   55  121 1    
   110   56  122 1    
   111   56  123 1    
   112   56  124 1    
   113   57   58 2    
   114   57   59 am   BACKBONE|DICT|INTERRES
   115   59   60 1    
   116   59  125 1    
   117   60   61 1    
   118   60   62 1    
   119   60  126 1    
   120   61  127 1    
   121   61  128 1    
   122   61  129 1    
   123   62   63 2    
   124   62   64 am   BACKBONE|DICT|INTERRES
   125   64   65 1    
   126   64  130 1    
   127   65   66 1    
   128   65   69 1    
   129   65  131 1    
   130   66   67 am   BACKBONE|DICT|INTERRES
   131   66   68 2    
   132   67  132 1    
   133   67  133 1    
   134   69   70 1    
   135   69  134 1    
   136   69  135 1    
   137   70   71 1    
   138   71  136 1    
   139   71  137 1    
@<TRIPOS>SUBSTRUCTURE
     1 UNK         1 GROUP             0       ****    0 ROOT    
