@<TRIPOS>MOLECULE
3R136
137   139    1
SMALL
USER_CHARGES


@<TRIPOS>ATOM
      1 CA         31.8201   19.5976   -1.4458 C.3       0 UNK        -0.1979 
      2 C          30.7253   20.6312   -1.2292 C.2       0 UNK         0.4864 
      3 O          30.6630   21.6217   -1.9606 O.2       0 UNK        -0.5359 
      4 N          29.8548   20.4097   -0.2356 N.am      1 UNK        -0.4318 
      5 CA         28.7467   21.2966    0.1353 C.3       1 UNK         0.0824 
      6 C6         28.2931   21.0834    1.6030 C.3       12 UNK        -0.0944 
      7 S7         29.6191   21.3972    2.8182 S.3       12 UNK        -0.2672 
      8 C8         29.2883   23.1180    3.3214 C.3       12 UNK         0.0333 
      9 C9         30.3968   24.0504    2.8596 C.ar      12 UNK        -0.0807 
     10 C10        31.4785   24.3308    3.7000 C.ar      12 UNK        -0.0894 
     11 C11        32.4929   25.1990    3.2850 C.ar      12 UNK        -0.0804 
     12 C12        32.4168   25.7886    2.0185 C.ar      12 UNK        -0.0824 
     13 C13        31.3314   25.5308    1.1761 C.ar      12 UNK        -0.0762 
     14 C14        30.3327   24.6504    1.5998 C.ar      12 UNK        -0.0782 
     15 C15        31.2347   26.2138   -0.1839 C.3       12 UNK         0.0230 
     16 S16        29.6711   27.1279   -0.4204 S.3       12 UNK        -0.2608 
     17 C17        29.6840   28.2751    0.9998 C.3       12 UNK        -0.0989 
     18 CA         28.2816   28.8605    1.3127 C.3       5 UNK         0.0716 
     19 N          27.2230   27.8562    1.4999 N.am      5 UNK        -0.4135 
     20 C          27.1345   26.8875    2.4245 C.2       4 UNK         0.5031 
     21 O          27.9692   26.6907    3.3085 O.2       4 UNK        -0.5229 
     22 CA         25.8838   25.9914    2.3594 C.3       4 UNK         0.0329 
     23 CB         24.7458   26.5976    3.1966 C.3       4 UNK        -0.2001 
     24 N          25.4156   25.7561    0.9880 N.am      4 UNK        -0.4303 
     25 C          26.0792   25.0014    0.1033 C.2       3 UNK         0.5044 
     26 O          27.1129   24.3849    0.3760 O.2       3 UNK        -0.5152 
     27 CA         25.5074   24.9288   -1.3212 C.3       3 UNK         0.0319 
     28 CB         25.6780   26.2674   -2.0606 C.3       3 UNK        -0.2001 
     29 N          26.2584   23.8965   -2.0217 N.am      3 UNK        -0.4354 
     30 C          25.7740   22.9236   -2.7985 C.2       2 UNK         0.4964 
     31 O          24.6168   22.8828   -3.2174 O.2       2 UNK        -0.5047 
     32 CA         26.7537   21.7806   -3.1335 C.3       2 UNK         0.0288 
     33 CB         27.4242   22.0220   -4.4954 C.3       2 UNK        -0.2113 
     34 N          27.7908   21.6128   -2.1061 N.am      2 UNK        -0.4145 
     35 C          27.5698   21.1727   -0.8588 C.2       1 UNK         0.5006 
     36 O          26.4927   20.6976   -0.4911 O.2       1 UNK        -0.5103 
     37 C          28.3566   29.8708    2.4748 C.2       5 UNK         0.5055 
     38 O          28.1785   31.0691    2.2485 O.2       5 UNK        -0.5220 
     39 N          28.6188   29.3682    3.6893 N.am      6 UNK        -0.4450 
     40 CA         28.7729   30.0967    4.9492 C.3       6 UNK         0.0367 
     41 CB         27.3882   30.5403    5.4729 C.3       6 UNK        -0.1929 
     42 C          29.8008   31.2366    4.8180 C.2       6 UNK         0.5070 
     43 O          30.9465   30.9737    4.4431 O.2       6 UNK        -0.5237 
     44 N          29.3710   32.4789    5.0756 N.am      7 UNK        -0.4739 
     45 CA         30.1709   33.7042    5.0073 C.3       7 UNK         0.0276 
     46 CB         29.3007   34.8955    5.4381 C.3       7 UNK        -0.1927 
     47 C          30.8214   33.9841    3.6399 C.2       7 UNK         0.5013 
     48 O          31.8416   34.6716    3.6078 O.2       7 UNK        -0.5193 
     49 N          30.2698   33.4284    2.5487 N.am      8 UNK        -0.4253 
     50 CA         30.8454   33.5265    1.2019 C.3       8 UNK         0.0242 
     51 CB         29.8277   33.0346    0.1604 C.3       8 UNK        -0.2000 
     52 C          32.1758   32.7647    1.0521 C.2       8 UNK         0.4948 
     53 O          32.9997   33.1616    0.2274 O.2       8 UNK        -0.5275 
     54 N          32.3661   31.7053    1.8511 N.am      9 UNK        -0.4246 
     55 CA         33.5975   30.9123    1.9156 C.3       9 UNK         0.0261 
     56 CB         33.2334   29.4330    1.7038 C.3       9 UNK        -0.1959 
     57 C          34.3496   31.1062    3.2469 C.2       9 UNK         0.5033 
     58 O          35.4163   30.5149    3.4178 O.2       9 UNK        -0.5390 
     59 N          33.7819   31.9067    4.1639 N.am      10 UNK        -0.4215 
     60 CA         34.1785   32.0952    5.5661 C.3       10 UNK         0.0240 
     61 CB         35.5605   32.7751    5.6714 C.3       10 UNK        -0.1982 
     62 C          34.0726   30.7958    6.3942 C.2       10 UNK         0.4970 
     63 O          34.8766   30.5776    7.3028 O.2       10 UNK        -0.4916 
     64 N          33.0811   29.9625    6.0608 N.am      11 UNK        -0.4279 
     65 CA         32.7893   28.6728    6.6980 C.3       11 UNK         0.1003 
     66 C          31.6639   28.8059    7.7579 C.2       11 UNK         0.5709 
     67 N          31.5426   27.8341    8.6519 N.am      11 UNK        -0.7358 
     68 O          30.8903   29.7621    7.7755 O.2       11 UNK        -0.4999 
     69 C69        32.4463   27.5974    5.6323 C.3       12 UNK        -0.0954 
     70 S70        33.8801   27.2531    4.5580 S.3       12 UNK        -0.2268 
     71 C71        33.6822   25.4801    4.1945 C.3       12 UNK         0.0203 
     72 H72        31.7456   19.1769   -2.4482 H         1 UNK         0.0888 
     73 H73        32.7999   20.0632   -1.3429 H         1 UNK         0.0888 
     74 H74        31.7563   18.7797   -0.7284 H         1 UNK         0.0888 
     75 H75        29.9477   19.5765    0.3276 H         1 UNK         0.3017 
     76 H76        29.1008   22.3262    0.0593 H         1 UNK         0.0873 
     77 H77        27.4364   21.7182    1.8370 H         1 UNK         0.0745 
     78 H78        27.9477   20.0578    1.7461 H         1 UNK         0.0745 
     79 H79        29.2006   23.1545    4.4083 H         1 UNK         0.0705 
     80 H80        28.3301   23.4668    2.9339 H         1 UNK         0.0705 
     81 H81        31.5307   23.8679    4.6760 H         1 UNK         0.1334 
     82 H82        33.2016   26.4590    1.6974 H         1 UNK         0.1417 
     83 H83        29.4929   24.4529    0.9522 H         1 UNK         0.1562 
     84 H84        31.3210   25.4571   -0.9648 H         1 UNK         0.0748 
     85 H85        32.0661   26.9049   -0.3306 H         1 UNK         0.0748 
     86 H86        30.3846   29.0799    0.7718 H         1 UNK         0.0940 
     87 H87        30.0826   27.7624    1.8763 H         1 UNK         0.0940 
     88 H88        27.9744   29.4323    0.4353 H         1 UNK         0.0703 
     89 H89        26.4626   27.9238    0.8405 H         1 UNK         0.3081 
     90 H90        26.1498   25.0272    2.7986 H         1 UNK         0.0719 
     91 H91        24.4159   27.5586    2.8001 H         1 UNK         0.0809 
     92 H92        23.8820   25.9334    3.2315 H         1 UNK         0.0809 
     93 H93        25.0662   26.7632    4.2263 H         1 UNK         0.0809 
     94 H94        24.5605   26.2137    0.7052 H         1 UNK         0.2990 
     95 H95        24.4508   24.6592   -1.2630 H         1 UNK         0.0690 
     96 H96        26.7205   26.5897   -2.0744 H         1 UNK         0.0788 
     97 H97        25.0956   27.0587   -1.5879 H         1 UNK         0.0788 
     98 H98        25.3391   26.1921   -3.0941 H         1 UNK         0.0788 
     99 H99        27.2030   23.7940   -1.6730 H         1 UNK         0.2993 
    100 H100       26.1749   20.8561   -3.1900 H         1 UNK         0.0949 
    101 H101       28.0281   22.9304   -4.4929 H         1 UNK         0.0767 
    102 H102       28.0715   21.1892   -4.7715 H         1 UNK         0.0767 
    103 H103       26.6779   22.1274   -5.2843 H         1 UNK         0.0767 
    104 H104       28.7366   21.9046   -2.3377 H         1 UNK         0.3013 
    105 H105       28.6857   28.3537    3.7496 H         1 UNK         0.3121 
    106 H106       29.1908   29.3894    5.6662 H         1 UNK         0.0774 
    107 H107       27.4680   31.0168    6.4509 H         1 UNK         0.0815 
    108 H108       26.8940   31.2374    4.7950 H         1 UNK         0.0815 
    109 H109       26.7276   29.6817    5.5945 H         1 UNK         0.0815 
    110 H110       28.4039   32.5919    5.3435 H         1 UNK         0.2987 
    111 H111       30.9831   33.5974    5.7294 H         1 UNK         0.0949 
    112 H112       28.4475   35.0335    4.7726 H         1 UNK         0.0806 
    113 H113       28.9204   34.7652    6.4515 H         1 UNK         0.0806 
    114 H114       29.8748   35.8234    5.4282 H         1 UNK         0.0806 
    115 H115       29.4459   32.8461    2.6550 H         1 UNK         0.3010 
    116 H116       31.0476   34.5816    1.0045 H         1 UNK         0.0829 
    117 H117       30.1918   33.2161   -0.8517 H         1 UNK         0.0813 
    118 H118       29.6431   31.9638    0.2480 H         1 UNK         0.0813 
    119 H119       28.8725   33.5507    0.2587 H         1 UNK         0.0813 
    120 H120       31.6377   31.4524    2.5110 H         1 UNK         0.3038 
    121 H121       34.2872   31.2070    1.1221 H         1 UNK         0.0769 
    122 H122       34.1181   28.7982    1.7688 H         1 UNK         0.0811 
    123 H123       32.7963   29.2716    0.7189 H         1 UNK         0.0811 
    124 H124       32.5228   29.0812    2.4531 H         1 UNK         0.0811 
    125 H125       32.9118   32.3482    3.9037 H         1 UNK         0.3204 
    126 H126       33.4456   32.7802    5.9946 H         1 UNK         0.0748 
    127 H127       35.7839   33.0484    6.7033 H         1 UNK         0.0771 
    128 H128       36.3625   32.1205    5.3291 H         1 UNK         0.0771 
    129 H129       35.5978   33.6899    5.0799 H         1 UNK         0.0771 
    130 H130       32.4077   30.2633    5.3612 H         1 UNK         0.2980 
    131 H131       33.6787   28.3365    7.2345 H         1 UNK         0.0545 
    132 H132       30.8149   27.8982    9.3463 H         1 UNK         0.3459 
    133 H133       32.1668   27.0426    8.6522 H         1 UNK         0.3459 
    134 H134       32.1395   26.6649    6.1089 H         1 UNK         0.0616 
    135 H135       31.6090   27.9167    5.0084 H         1 UNK         0.0616 
    136 H136       34.5885   25.1231    3.7039 H         1 UNK         0.0634 
    137 H137       33.6033   24.9286    5.1326 H         1 UNK         0.0634 
@<TRIPOS>BOND
     1    1    2 1    
     2    1   72 1    
     3    1   73 1    
     4    1   74 1    
     5    2    3 2    
     6    2    4 am   BACKBONE|DICT|INTERRES
     7    4    5 1    
     8    4   75 1    
     9    5    6 1    
    10    5   35 1    
    11    5   76 1    
    12    6    7 1    
    13    6   77 1    
    14    6   78 1    
    15    7    8 1    
    16    8    9 1    
    17    8   79 1    
    18    8   80 1    
    19    9   10 ar   
    20    9   14 ar   
    21   10   11 ar   
    22   10   81 1    
    23   11   12 ar   
    24   11   71 1    
    25   12   13 ar   
    26   12   82 1    
    27   13   14 ar   
    28   13   15 1    
    29   14   83 1    
    30   15   16 1    
    31   15   84 1    
    32   15   85 1    
    33   16   17 1    
    34   17   18 1    
    35   17   86 1    
    36   17   87 1    
    37   18   19 1    
    38   18   37 1    
    39   18   88 1    
    40   19   20 am   BACKBONE|DICT|INTERRES
    41   19   89 1    
    42   20   21 2    
    43   20   22 1    
    44   22   23 1    
    45   22   24 1    
    46   22   90 1    
    47   23   91 1    
    48   23   92 1    
    49   23   93 1    
    50   24   25 am   BACKBONE|DICT|INTERRES
    51   24   94 1    
    52   25   26 2    
    53   25   27 1    
    54   27   28 1    
    55   27   29 1    
    56   27   95 1    
    57   28   96 1    
    58   28   97 1    
    59   28   98 1    
    60   29   30 am   BACKBONE|DICT|INTERRES
    61   29   99 1    
    62   30   31 2    
    63   30   32 1    
    64   32   33 1    
    65   32   34 1    
    66   32  100 1    
    67   33  101 1    
    68   33  102 1    
    69   33  103 1    
    70   34   35 am   BACKBONE|DICT|INTERRES
    71   34  104 1    
    72   35   36 2    
    73   37   38 2    
    74   37   39 am   BACKBONE|DICT|INTERRES
    75   39   40 1    
    76   39  105 1    
    77   40   41 1    
    78   40   42 1    
    79   40  106 1    
    80   41  107 1    
    81   41  108 1    
    82   41  109 1    
    83   42   43 2    
    84   42   44 am   BACKBONE|DICT|INTERRES
    85   44   45 1    
    86   44  110 1    
    87   45   46 1    
    88   45   47 1    
    89   45  111 1    
    90   46  112 1    
    91   46  113 1    
    92   46  114 1    
    93   47   48 2    
    94   47   49 am   BACKBONE|DICT|INTERRES
    95   49   50 1    
    96   49  115 1    
    97   50   51 1    
    98   50   52 1    
    99   50  116 1    
   100   51  117 1    
   101   51  118 1    
   102   51  119 1    
   103   52   53 2    
   104   52   54 am   BACKBONE|DICT|INTERRES
   105   54   55 1    
   106   54  120 1    
   107   55   56 1    
   108   55   57 1    
   109   55  121 1    
   110   56  122 1    
   111   56  123 1    
   112   56  124 1    
   113   57   58 2    
   114   57   59 am   BACKBONE|DICT|INTERRES
   115   59   60 1    
   116   59  125 1    
   117   60   61 1    
   118   60   62 1    
   119   60  126 1    
   120   61  127 1    
   121   61  128 1    
   122   61  129 1    
   123   62   63 2    
   124   62   64 am   BACKBONE|DICT|INTERRES
   125   64   65 1    
   126   64  130 1    
   127   65   66 1    
   128   65   69 1    
   129   65  131 1    
   130   66   67 am   BACKBONE|DICT|INTERRES
   131   66   68 2    
   132   67  132 1    
   133   67  133 1    
   134   69   70 1    
   135   69  134 1    
   136   69  135 1    
   137   70   71 1    
   138   71  136 1    
   139   71  137 1    
@<TRIPOS>SUBSTRUCTURE
     1 UNK         1 GROUP             0       ****    0 ROOT    
