@<TRIPOS>MOLECULE
3R136
137   139    1
SMALL
USER_CHARGES


@<TRIPOS>ATOM
      1 CA         29.1017   26.9948   -6.3356 C.3       0 UNK        -0.1979 
      2 C          28.5831   27.0798   -4.9073 C.2       0 UNK         0.4864 
      3 O          27.4468   27.5052   -4.6977 O.2       0 UNK        -0.5359 
      4 N          29.4135   26.6883   -3.9313 N.am      1 UNK        -0.4318 
      5 CA         29.0804   26.6339   -2.5054 C.3       1 UNK         0.0824 
      6 C6         30.3678   26.6607   -1.6412 C.3       12 UNK        -0.0944 
      7 S7         30.0439   26.8454    0.1430 S.3       12 UNK        -0.2672 
      8 C8         31.1253   25.5518    0.8231 C.3       12 UNK         0.0333 
      9 C9         30.9179   25.3986    2.3205 C.ar      12 UNK        -0.0807 
     10 C10        31.5537   26.2655    3.2150 C.ar      12 UNK        -0.0894 
     11 C11        31.3448   26.1375    4.5916 C.ar      12 UNK        -0.0804 
     12 C12        30.4975   25.1349    5.0712 C.ar      12 UNK        -0.0824 
     13 C13        29.8485   24.2709    4.1845 C.ar      12 UNK        -0.0762 
     14 C14        30.0748   24.3973    2.8110 C.ar      12 UNK        -0.0782 
     15 C15        28.8660   23.2318    4.7067 C.3       12 UNK         0.0230 
     16 S16        27.1408   23.6472    4.2795 S.3       12 UNK        -0.2608 
     17 C17        26.9722   25.3374    4.9525 C.3       12 UNK        -0.0989 
     18 CA         27.1581   26.4148    3.8525 C.3       5 UNK         0.0716 
     19 N          26.1145   26.3185    2.8301 N.am      5 UNK        -0.4135 
     20 C          26.0665   27.0012    1.6804 C.2       4 UNK         0.5031 
     21 O          26.8921   27.8495    1.3437 O.2       4 UNK        -0.5229 
     22 CA         24.9123   26.6290    0.7331 C.3       4 UNK         0.0329 
     23 CB         24.7778   27.6007   -0.4548 C.3       4 UNK        -0.2001 
     24 N          25.0818   25.2607    0.2331 N.am      4 UNK        -0.4303 
     25 C          24.7257   24.1593    0.9126 C.2       3 UNK         0.5044 
     26 O          24.1904   24.2033    2.0219 O.2       3 UNK        -0.5152 
     27 CA         24.9866   22.7804    0.2772 C.3       3 UNK         0.0319 
     28 CB         23.6656   22.1517   -0.1969 C.3       3 UNK        -0.2001 
     29 N          25.9248   22.8066   -0.8455 N.am      3 UNK        -0.4354 
     30 C          27.2575   22.8839   -0.7347 C.2       2 UNK         0.4964 
     31 O          27.8553   22.9298    0.3401 O.2       2 UNK        -0.5047 
     32 CA         28.0710   22.9220   -2.0454 C.3       2 UNK         0.0288 
     33 CB         27.2582   22.5476   -3.3073 C.3       2 UNK        -0.2113 
     34 N          28.7393   24.2139   -2.2424 N.am      2 UNK        -0.4145 
     35 C          28.1600   25.4256   -2.2308 C.2       1 UNK         0.5006 
     36 O          26.9532   25.6052   -2.0561 O.2       1 UNK        -0.5103 
     37 C          27.2774   27.8234    4.4687 C.2       5 UNK         0.5055 
     38 O          26.2964   28.5708    4.5058 O.2       5 UNK        -0.5220 
     39 N          28.4870   28.1272    4.9656 N.am      6 UNK        -0.4450 
     40 CA         28.9328   29.4225    5.4995 C.3       6 UNK         0.0367 
     41 CB         28.1118   29.8500    6.7350 C.3       6 UNK        -0.1929 
     42 C          29.0066   30.5035    4.4034 C.2       6 UNK         0.5070 
     43 O          28.6032   31.6469    4.6217 O.2       6 UNK        -0.5237 
     44 N          29.5419   30.1119    3.2434 N.am      7 UNK        -0.4739 
     45 CA         29.8157   30.9533    2.0824 C.3       7 UNK         0.0276 
     46 CB         28.6722   30.7953    1.0644 C.3       7 UNK        -0.1927 
     47 C          31.1619   30.5208    1.4845 C.2       7 UNK         0.5013 
     48 O          31.7692   29.5677    1.9846 O.2       7 UNK        -0.5193 
     49 N          31.6098   31.2315    0.4381 N.am      8 UNK        -0.4253 
     50 CA         32.8461   31.0106   -0.3266 C.3       8 UNK         0.0242 
     51 CB         32.7496   29.7124   -1.1583 C.3       8 UNK        -0.2000 
     52 C          34.1003   31.0691    0.5642 C.2       8 UNK         0.4948 
     53 O          34.6391   32.1557    0.7771 O.2       8 UNK        -0.5275 
     54 N          34.5131   29.9102    1.0956 N.am      9 UNK        -0.4246 
     55 CA         35.5577   29.7663    2.1113 C.3       9 UNK         0.0261 
     56 CB         35.9063   28.2762    2.2621 C.3       9 UNK        -0.1959 
     57 C          35.1655   30.3588    3.4783 C.2       9 UNK         0.5033 
     58 O          36.0571   30.6564    4.2738 O.2       9 UNK        -0.5390 
     59 N          33.8554   30.4913    3.7432 N.am      10 UNK        -0.4215 
     60 CA         33.1974   31.0797    4.9219 C.3       10 UNK         0.0240 
     61 CB         33.5864   32.5596    5.0997 C.3       10 UNK        -0.1982 
     62 C          33.3698   30.2982    6.2381 C.2       10 UNK         0.4970 
     63 O          32.4667   30.3471    7.0731 O.2       10 UNK        -0.4916 
     64 N          34.4821   29.5687    6.3824 N.am      11 UNK        -0.4279 
     65 CA         34.8229   28.6746    7.5020 C.3       11 UNK         0.1003 
     66 C          35.1255   29.4064    8.8459 C.2       11 UNK         0.5709 
     67 N          35.3657   30.7125    8.8490 N.am      11 UNK        -0.7358 
     68 O          35.1790   28.7792    9.9016 O.2       11 UNK        -0.4999 
     69 C69        33.8201   27.4950    7.6730 C.3       12 UNK        -0.0954 
     70 S70        33.5977   26.4866    6.1642 S.3       12 UNK        -0.2268 
     71 C71        31.9968   27.1048    5.5637 C.3       12 UNK         0.0203 
     72 H72        30.1227   26.6158   -6.3785 H         1 UNK         0.0888 
     73 H73        28.4692   26.3314   -6.9250 H         1 UNK         0.0888 
     74 H74        29.0870   27.9808   -6.7994 H         1 UNK         0.0888 
     75 H75        30.3323   26.3510   -4.1808 H         1 UNK         0.3017 
     76 H76        28.5070   27.5318   -2.2620 H         1 UNK         0.0873 
     77 H77        30.9851   25.7800   -1.8239 H         1 UNK         0.0745 
     78 H78        30.9811   27.5107   -1.9403 H         1 UNK         0.0745 
     79 H79        32.1664   25.8027    0.6142 H         1 UNK         0.0705 
     80 H80        30.9226   24.6057    0.3183 H         1 UNK         0.0705 
     81 H81        32.1981   27.0476    2.8365 H         1 UNK         0.1334 
     82 H82        30.3284   25.0413    6.1357 H         1 UNK         0.1417 
     83 H83        29.5626   23.7378    2.1233 H         1 UNK         0.1562 
     84 H84        28.9498   23.1258    5.7894 H         1 UNK         0.0748 
     85 H85        29.1112   22.2568    4.2832 H         1 UNK         0.0748 
     86 H86        27.6883   25.4657    5.7660 H         1 UNK         0.0940 
     87 H87        25.9860   25.4300    5.4115 H         1 UNK         0.0940 
     88 H88        28.0969   26.2300    3.3300 H         1 UNK         0.0703 
     89 H89        25.4095   25.6056    2.9781 H         1 UNK         0.3081 
     90 H90        23.9842   26.6902    1.3056 H         1 UNK         0.0719 
     91 H91        25.6863   27.6401   -1.0559 H         1 UNK         0.0809 
     92 H92        23.9541   27.3173   -1.1098 H         1 UNK         0.0809 
     93 H93        24.5808   28.6144   -0.1038 H         1 UNK         0.0809 
     94 H94        25.5921   25.1648   -0.6403 H         1 UNK         0.2990 
     95 H95        25.4038   22.1418    1.0591 H         1 UNK         0.0690 
     96 H96        23.8204   21.1424   -0.5788 H         1 UNK         0.0788 
     97 H97        23.1969   22.7426   -0.9849 H         1 UNK         0.0788 
     98 H98        22.9507   22.0785    0.6240 H         1 UNK         0.0788 
     99 H99        25.5248   22.7998   -1.7728 H         1 UNK         0.2993 
    100 H100       28.8594   22.1765   -1.9290 H         1 UNK         0.0949 
    101 H101       26.4777   23.2761   -3.5307 H         1 UNK         0.0767 
    102 H102       27.9064   22.4893   -4.1819 H         1 UNK         0.0767 
    103 H103       26.7854   21.5703   -3.1991 H         1 UNK         0.0767 
    104 H104       29.7382   24.1669   -2.3800 H         1 UNK         0.3013 
    105 H105       29.2094   27.4249    4.8827 H         1 UNK         0.3121 
    106 H106       29.9591   29.2777    5.8385 H         1 UNK         0.0774 
    107 H107       28.5552   30.7270    7.2081 H         1 UNK         0.0815 
    108 H108       27.0854   30.1099    6.4755 H         1 UNK         0.0815 
    109 H109       28.0806   29.0595    7.4846 H         1 UNK         0.0815 
    110 H110       29.9045   29.1714    3.1555 H         1 UNK         0.2987 
    111 H111       29.8994   31.9982    2.3894 H         1 UNK         0.0949 
    112 H112       28.7849   31.4832    0.2262 H         1 UNK         0.0806 
    113 H113       28.6389   29.7842    0.6557 H         1 UNK         0.0806 
    114 H114       27.7032   30.9987    1.5208 H         1 UNK         0.0806 
    115 H115       31.0553   32.0191    0.1323 H         1 UNK         0.3010 
    116 H116       32.9305   31.8411   -1.0295 H         1 UNK         0.0829 
    117 H117       31.9466   29.7836   -1.8918 H         1 UNK         0.0813 
    118 H118       33.6723   29.5292   -1.7107 H         1 UNK         0.0813 
    119 H119       32.5529   28.8342   -0.5427 H         1 UNK         0.0813 
    120 H120       33.9621   29.0875    0.8937 H         1 UNK         0.3038 
    121 H121       36.4453   30.2988    1.7635 H         1 UNK         0.0769 
    122 H122       36.7085   28.1347    2.9880 H         1 UNK         0.0811 
    123 H123       36.2476   27.8501    1.3185 H         1 UNK         0.0811 
    124 H124       35.0506   27.6930    2.6057 H         1 UNK         0.0811 
    125 H125       33.2113   30.1373    3.0375 H         1 UNK         0.3204 
    126 H126       32.1308   31.0516    4.6945 H         1 UNK         0.0748 
    127 H127       33.0116   33.0192    5.9049 H         1 UNK         0.0771 
    128 H128       34.6418   32.6784    5.3466 H         1 UNK         0.0771 
    129 H129       33.3883   33.1315    4.1929 H         1 UNK         0.0771 
    130 H130       35.1944   29.6756    5.6667 H         1 UNK         0.2980 
    131 H131       35.7794   28.2333    7.2208 H         1 UNK         0.0545 
    132 H132       35.5718   31.1747    9.7205 H         1 UNK         0.3459 
    133 H133       35.3417   31.2375    7.9899 H         1 UNK         0.3459 
    134 H134       32.8549   27.8585    8.0274 H         1 UNK         0.0616 
    135 H135       34.1766   26.8131    8.4468 H         1 UNK         0.0616 
    136 H136       32.1410   28.0682    5.0759 H         1 UNK         0.0634 
    137 H137       31.3283   27.2780    6.4081 H         1 UNK         0.0634 
@<TRIPOS>BOND
     1    1    2 1    
     2    1   72 1    
     3    1   73 1    
     4    1   74 1    
     5    2    3 2    
     6    2    4 am   BACKBONE|DICT|INTERRES
     7    4    5 1    
     8    4   75 1    
     9    5    6 1    
    10    5   35 1    
    11    5   76 1    
    12    6    7 1    
    13    6   77 1    
    14    6   78 1    
    15    7    8 1    
    16    8    9 1    
    17    8   79 1    
    18    8   80 1    
    19    9   10 ar   
    20    9   14 ar   
    21   10   11 ar   
    22   10   81 1    
    23   11   12 ar   
    24   11   71 1    
    25   12   13 ar   
    26   12   82 1    
    27   13   14 ar   
    28   13   15 1    
    29   14   83 1    
    30   15   16 1    
    31   15   84 1    
    32   15   85 1    
    33   16   17 1    
    34   17   18 1    
    35   17   86 1    
    36   17   87 1    
    37   18   19 1    
    38   18   37 1    
    39   18   88 1    
    40   19   20 am   BACKBONE|DICT|INTERRES
    41   19   89 1    
    42   20   21 2    
    43   20   22 1    
    44   22   23 1    
    45   22   24 1    
    46   22   90 1    
    47   23   91 1    
    48   23   92 1    
    49   23   93 1    
    50   24   25 am   BACKBONE|DICT|INTERRES
    51   24   94 1    
    52   25   26 2    
    53   25   27 1    
    54   27   28 1    
    55   27   29 1    
    56   27   95 1    
    57   28   96 1    
    58   28   97 1    
    59   28   98 1    
    60   29   30 am   BACKBONE|DICT|INTERRES
    61   29   99 1    
    62   30   31 2    
    63   30   32 1    
    64   32   33 1    
    65   32   34 1    
    66   32  100 1    
    67   33  101 1    
    68   33  102 1    
    69   33  103 1    
    70   34   35 am   BACKBONE|DICT|INTERRES
    71   34  104 1    
    72   35   36 2    
    73   37   38 2    
    74   37   39 am   BACKBONE|DICT|INTERRES
    75   39   40 1    
    76   39  105 1    
    77   40   41 1    
    78   40   42 1    
    79   40  106 1    
    80   41  107 1    
    81   41  108 1    
    82   41  109 1    
    83   42   43 2    
    84   42   44 am   BACKBONE|DICT|INTERRES
    85   44   45 1    
    86   44  110 1    
    87   45   46 1    
    88   45   47 1    
    89   45  111 1    
    90   46  112 1    
    91   46  113 1    
    92   46  114 1    
    93   47   48 2    
    94   47   49 am   BACKBONE|DICT|INTERRES
    95   49   50 1    
    96   49  115 1    
    97   50   51 1    
    98   50   52 1    
    99   50  116 1    
   100   51  117 1    
   101   51  118 1    
   102   51  119 1    
   103   52   53 2    
   104   52   54 am   BACKBONE|DICT|INTERRES
   105   54   55 1    
   106   54  120 1    
   107   55   56 1    
   108   55   57 1    
   109   55  121 1    
   110   56  122 1    
   111   56  123 1    
   112   56  124 1    
   113   57   58 2    
   114   57   59 am   BACKBONE|DICT|INTERRES
   115   59   60 1    
   116   59  125 1    
   117   60   61 1    
   118   60   62 1    
   119   60  126 1    
   120   61  127 1    
   121   61  128 1    
   122   61  129 1    
   123   62   63 2    
   124   62   64 am   BACKBONE|DICT|INTERRES
   125   64   65 1    
   126   64  130 1    
   127   65   66 1    
   128   65   69 1    
   129   65  131 1    
   130   66   67 am   BACKBONE|DICT|INTERRES
   131   66   68 2    
   132   67  132 1    
   133   67  133 1    
   134   69   70 1    
   135   69  134 1    
   136   69  135 1    
   137   70   71 1    
   138   71  136 1    
   139   71  137 1    
@<TRIPOS>SUBSTRUCTURE
     1 UNK         1 GROUP             0       ****    0 ROOT    
