@<TRIPOS>MOLECULE
3R136
137   139    1
SMALL
USER_CHARGES


@<TRIPOS>ATOM
      1 CA         25.7154   17.8167    1.1950 C.3       0 UNK        -0.1979 
      2 C          27.0232   18.4602    0.7575 C.2       0 UNK         0.4864 
      3 O          28.0455   17.7771    0.6809 O.2       0 UNK        -0.5359 
      4 N          26.9975   19.7651    0.4686 N.am      1 UNK        -0.4318 
      5 CA         28.1305   20.5587   -0.0014 C.3       1 UNK         0.0824 
      6 C6         29.0771   20.9689    1.1590 C.3       12 UNK        -0.0944 
      7 S7         30.7517   21.3923    0.5724 S.3       12 UNK        -0.2672 
      8 C8         30.7820   23.1956    0.8109 C.3       12 UNK         0.0333 
      9 C9         31.1399   23.5706    2.2397 C.ar      12 UNK        -0.0807 
     10 C10        32.4817   23.5804    2.6301 C.ar      12 UNK        -0.0894 
     11 C11        32.8426   23.9639    3.9236 C.ar      12 UNK        -0.0804 
     12 C12        31.8463   24.3202    4.8354 C.ar      12 UNK        -0.0824 
     13 C13        30.4977   24.3150    4.4610 C.ar      12 UNK        -0.0762 
     14 C14        30.1498   23.9386    3.1585 C.ar      12 UNK        -0.0782 
     15 C15        29.4212   24.6697    5.4810 C.3       12 UNK         0.0230 
     16 S16        29.7381   26.2697    6.3017 S.3       12 UNK        -0.2608 
     17 C17        28.4128   27.3510    5.6714 C.3       12 UNK        -0.0989 
     18 CA         28.9446   28.3938    4.6596 C.3       5 UNK         0.0716 
     19 N          29.3262   27.7887    3.3804 N.am      5 UNK        -0.4135 
     20 C          29.9462   28.4350    2.3830 C.2       4 UNK         0.5031 
     21 O          30.3533   29.5932    2.4669 O.2       4 UNK        -0.5229 
     22 CA         30.1103   27.6771    1.0527 C.3       4 UNK         0.0329 
     23 CB         31.4608   26.9469    1.0159 C.3       4 UNK        -0.2001 
     24 N          29.0191   26.7365    0.7577 N.am      4 UNK        -0.4303 
     25 C          27.7311   27.0874    0.6151 C.2       3 UNK         0.5044 
     26 O          27.3271   28.2385    0.7872 O.2       3 UNK        -0.5152 
     27 CA         26.7182   25.9743    0.2691 C.3       3 UNK         0.0319 
     28 CB         25.4447   26.5336   -0.4001 C.3       3 UNK        -0.2001 
     29 N          27.2461   24.8564   -0.5264 N.am      3 UNK        -0.4354 
     30 C          27.8257   24.9061   -1.7349 C.2       2 UNK         0.4964 
     31 O          28.1266   25.9596   -2.2975 O.2       2 UNK        -0.5047 
     32 CA         28.1006   23.5598   -2.4500 C.3       2 UNK         0.0288 
     33 CB         29.2220   23.6809   -3.5000 C.3       2 UNK        -0.2113 
     34 N          28.4135   22.4231   -1.5720 N.am      2 UNK        -0.4145 
     35 C          27.5660   21.7705   -0.7655 C.2       1 UNK         0.5006 
     36 O          26.3911   22.1096   -0.5953 O.2       1 UNK        -0.5103 
     37 C          27.9251   29.5354    4.4677 C.2       5 UNK         0.5055 
     38 O          28.1318   30.6285    4.9985 O.2       5 UNK        -0.5220 
     39 N          26.8615   29.2669    3.6947 N.am      6 UNK        -0.4450 
     40 CA         25.7989   30.2254    3.3784 C.3       6 UNK         0.0367 
     41 CB         24.6189   29.4954    2.7191 C.3       6 UNK        -0.1929 
     42 C          26.2865   31.3799    2.4896 C.2       6 UNK         0.5070 
     43 O          25.8208   32.5076    2.6555 O.2       6 UNK        -0.5237 
     44 N          27.2537   31.1023    1.6051 N.am      7 UNK        -0.4739 
     45 CA         27.9508   32.0697    0.7506 C.3       7 UNK         0.0276 
     46 CB         28.6191   31.3070   -0.4084 C.3       7 UNK        -0.1927 
     47 C          28.9537   32.9559    1.5258 C.2       7 UNK         0.5013 
     48 O          30.0884   33.1301    1.0806 O.2       7 UNK        -0.5193 
     49 N          28.5126   33.5034    2.6676 N.am      8 UNK        -0.4253 
     50 CA         29.2360   34.3883    3.5878 C.3       8 UNK         0.0242 
     51 CB         29.4553   35.7720    2.9386 C.3       8 UNK        -0.2000 
     52 C          30.5366   33.7726    4.1439 C.2       8 UNK         0.4948 
     53 O          31.5449   34.4745    4.2472 O.2       8 UNK        -0.5275 
     54 N          30.4826   32.4792    4.5028 N.am      9 UNK        -0.4246 
     55 CA         31.5805   31.6699    5.0481 C.3       9 UNK         0.0261 
     56 CB         31.9314   32.1212    6.4817 C.3       9 UNK        -0.1959 
     57 C          32.8076   31.6097    4.1170 C.2       9 UNK         0.5033 
     58 O          33.9372   31.8328    4.5594 O.2       9 UNK        -0.5390 
     59 N          32.5663   31.2779    2.8413 N.am      10 UNK        -0.4215 
     60 CA         33.5776   31.1605    1.7845 C.3       10 UNK         0.0240 
     61 CB         32.8791   30.9353    0.4333 C.3       10 UNK        -0.1982 
     62 C          34.6266   30.0625    2.0385 C.2       10 UNK         0.4970 
     63 O          35.7319   30.1557    1.5032 O.2       10 UNK        -0.4916 
     64 N          34.2742   29.0622    2.8572 N.am      11 UNK        -0.4279 
     65 CA         35.1893   28.0266    3.3565 C.3       11 UNK         0.1003 
     66 C          36.1917   28.5240    4.4434 C.2       11 UNK         0.5709 
     67 N          36.0483   29.7259    4.9932 N.am      11 UNK        -0.7358 
     68 O          37.1298   27.8099    4.7885 O.2       11 UNK        -0.4999 
     69 C69        34.4045   26.7656    3.8151 C.3       12 UNK        -0.0954 
     70 S70        35.2682   25.2174    3.3898 S.3       12 UNK        -0.2268 
     71 C71        34.3079   23.9933    4.3365 C.3       12 UNK         0.0203 
     72 H72        25.4420   17.0169    0.5072 H         1 UNK         0.0888 
     73 H73        25.8229   17.3885    2.1912 H         1 UNK         0.0888 
     74 H74        24.8966   18.5357    1.2218 H         1 UNK         0.0888 
     75 H75        26.1274   20.2846    0.4918 H         1 UNK         0.3017 
     76 H76        28.6807   19.9488   -0.7220 H         1 UNK         0.0873 
     77 H77        28.6520   21.7777    1.7551 H         1 UNK         0.0745 
     78 H78        29.2021   20.1347    1.8510 H         1 UNK         0.0745 
     79 H79        31.5185   23.6246    0.1296 H         1 UNK         0.0705 
     80 H80        29.8230   23.6290    0.5288 H         1 UNK         0.0705 
     81 H81        33.2501   23.3032    1.9211 H         1 UNK         0.1334 
     82 H82        32.1191   24.6058    5.8422 H         1 UNK         0.1417 
     83 H83        29.1099   23.9236    2.8630 H         1 UNK         0.1562 
     84 H84        29.4056   23.8911    6.2448 H         1 UNK         0.0748 
     85 H85        28.4307   24.6609    5.0251 H         1 UNK         0.0748 
     86 H86        27.9885   27.8518    6.5445 H         1 UNK         0.0940 
     87 H87        27.5979   26.7631    5.2462 H         1 UNK         0.0940 
     88 H88        29.8434   28.8412    5.0855 H         1 UNK         0.0703 
     89 H89        29.0637   26.8264    3.2371 H         1 UNK         0.3081 
     90 H90        30.1117   28.4200    0.2534 H         1 UNK         0.0719 
     91 H91        32.2878   27.6522    1.1014 H         1 UNK         0.0809 
     92 H92        31.5994   26.4020    0.0822 H         1 UNK         0.0809 
     93 H93        31.5577   26.2421    1.8398 H         1 UNK         0.0809 
     94 H94        29.2742   25.7788    0.5765 H         1 UNK         0.2990 
     95 H95        26.4194   25.5429    1.2254 H         1 UNK         0.0690 
     96 H96        24.7308   25.7401   -0.6212 H         1 UNK         0.0788 
     97 H97        25.6747   27.0478   -1.3340 H         1 UNK         0.0788 
     98 H98        24.9366   27.2475    0.2477 H         1 UNK         0.0788 
     99 H99        26.9843   23.9306   -0.2019 H         1 UNK         0.2993 
    100 H100       27.1788   23.3145   -2.9820 H         1 UNK         0.0949 
    101 H101       29.3658   22.7439   -4.0387 H         1 UNK         0.0767 
    102 H102       28.9869   24.4413   -4.2461 H         1 UNK         0.0767 
    103 H103       30.1731   23.9552   -3.0416 H         1 UNK         0.0767 
    104 H104       29.3674   22.0909   -1.6104 H         1 UNK         0.3013 
    105 H105       26.8055   28.3691    3.2371 H         1 UNK         0.3121 
    106 H106       25.4492   30.6581    4.3183 H         1 UNK         0.0774 
    107 H107       24.8993   29.0641    1.7584 H         1 UNK         0.0815 
    108 H108       23.7918   30.1825    2.5358 H         1 UNK         0.0815 
    109 H109       24.2393   28.6940    3.3529 H         1 UNK         0.0815 
    110 H110       27.5379   30.1324    1.5086 H         1 UNK         0.2987 
    111 H111       27.2047   32.7412    0.3205 H         1 UNK         0.0949 
    112 H112       29.4249   30.6666   -0.0500 H         1 UNK         0.0806 
    113 H113       27.9033   30.6803   -0.9409 H         1 UNK         0.0806 
    114 H114       29.0505   31.9968   -1.1348 H         1 UNK         0.0806 
    115 H115       27.5516   33.2888    2.9216 H         1 UNK         0.3010 
    116 H116       28.5812   34.5301    4.4489 H         1 UNK         0.0829 
    117 H117       30.1394   35.7157    2.0912 H         1 UNK         0.0813 
    118 H118       28.5166   36.1979    2.5845 H         1 UNK         0.0813 
    119 H119       29.8799   36.4780    3.6534 H         1 UNK         0.0813 
    120 H120       29.5999   31.9887    4.3949 H         1 UNK         0.3038 
    121 H121       31.2051   30.6499    5.1130 H         1 UNK         0.0769 
    122 H122       32.6719   31.4573    6.9297 H         1 UNK         0.0811 
    123 H123       32.3470   33.1292    6.4991 H         1 UNK         0.0811 
    124 H124       31.0531   32.1084    7.1270 H         1 UNK         0.0811 
    125 H125       31.6151   31.0188    2.5864 H         1 UNK         0.3204 
    126 H126       34.1123   32.1113    1.7385 H         1 UNK         0.0748 
    127 H127       33.6060   30.8447   -0.3750 H         1 UNK         0.0771 
    128 H128       32.2759   30.0275    0.4347 H         1 UNK         0.0771 
    129 H129       32.2239   31.7696    0.1834 H         1 UNK         0.0771 
    130 H130       33.3496   29.0770    3.2587 H         1 UNK         0.2980 
    131 H131       35.8072   27.7424    2.5025 H         1 UNK         0.0545 
    132 H132       36.7136   30.0243    5.6882 H         1 UNK         0.3459 
    133 H133       35.2953   30.3497    4.7237 H         1 UNK         0.3459 
    134 H134       34.1911   26.7896    4.8856 H         1 UNK         0.0616 
    135 H135       33.4325   26.7206    3.3227 H         1 UNK         0.0616 
    136 H136       34.7431   23.0056    4.1791 H         1 UNK         0.0634 
    137 H137       34.4110   24.2098    5.4010 H         1 UNK         0.0634 
@<TRIPOS>BOND
     1    1    2 1    
     2    1   72 1    
     3    1   73 1    
     4    1   74 1    
     5    2    3 2    
     6    2    4 am   BACKBONE|DICT|INTERRES
     7    4    5 1    
     8    4   75 1    
     9    5    6 1    
    10    5   35 1    
    11    5   76 1    
    12    6    7 1    
    13    6   77 1    
    14    6   78 1    
    15    7    8 1    
    16    8    9 1    
    17    8   79 1    
    18    8   80 1    
    19    9   10 ar   
    20    9   14 ar   
    21   10   11 ar   
    22   10   81 1    
    23   11   12 ar   
    24   11   71 1    
    25   12   13 ar   
    26   12   82 1    
    27   13   14 ar   
    28   13   15 1    
    29   14   83 1    
    30   15   16 1    
    31   15   84 1    
    32   15   85 1    
    33   16   17 1    
    34   17   18 1    
    35   17   86 1    
    36   17   87 1    
    37   18   19 1    
    38   18   37 1    
    39   18   88 1    
    40   19   20 am   BACKBONE|DICT|INTERRES
    41   19   89 1    
    42   20   21 2    
    43   20   22 1    
    44   22   23 1    
    45   22   24 1    
    46   22   90 1    
    47   23   91 1    
    48   23   92 1    
    49   23   93 1    
    50   24   25 am   BACKBONE|DICT|INTERRES
    51   24   94 1    
    52   25   26 2    
    53   25   27 1    
    54   27   28 1    
    55   27   29 1    
    56   27   95 1    
    57   28   96 1    
    58   28   97 1    
    59   28   98 1    
    60   29   30 am   BACKBONE|DICT|INTERRES
    61   29   99 1    
    62   30   31 2    
    63   30   32 1    
    64   32   33 1    
    65   32   34 1    
    66   32  100 1    
    67   33  101 1    
    68   33  102 1    
    69   33  103 1    
    70   34   35 am   BACKBONE|DICT|INTERRES
    71   34  104 1    
    72   35   36 2    
    73   37   38 2    
    74   37   39 am   BACKBONE|DICT|INTERRES
    75   39   40 1    
    76   39  105 1    
    77   40   41 1    
    78   40   42 1    
    79   40  106 1    
    80   41  107 1    
    81   41  108 1    
    82   41  109 1    
    83   42   43 2    
    84   42   44 am   BACKBONE|DICT|INTERRES
    85   44   45 1    
    86   44  110 1    
    87   45   46 1    
    88   45   47 1    
    89   45  111 1    
    90   46  112 1    
    91   46  113 1    
    92   46  114 1    
    93   47   48 2    
    94   47   49 am   BACKBONE|DICT|INTERRES
    95   49   50 1    
    96   49  115 1    
    97   50   51 1    
    98   50   52 1    
    99   50  116 1    
   100   51  117 1    
   101   51  118 1    
   102   51  119 1    
   103   52   53 2    
   104   52   54 am   BACKBONE|DICT|INTERRES
   105   54   55 1    
   106   54  120 1    
   107   55   56 1    
   108   55   57 1    
   109   55  121 1    
   110   56  122 1    
   111   56  123 1    
   112   56  124 1    
   113   57   58 2    
   114   57   59 am   BACKBONE|DICT|INTERRES
   115   59   60 1    
   116   59  125 1    
   117   60   61 1    
   118   60   62 1    
   119   60  126 1    
   120   61  127 1    
   121   61  128 1    
   122   61  129 1    
   123   62   63 2    
   124   62   64 am   BACKBONE|DICT|INTERRES
   125   64   65 1    
   126   64  130 1    
   127   65   66 1    
   128   65   69 1    
   129   65  131 1    
   130   66   67 am   BACKBONE|DICT|INTERRES
   131   66   68 2    
   132   67  132 1    
   133   67  133 1    
   134   69   70 1    
   135   69  134 1    
   136   69  135 1    
   137   70   71 1    
   138   71  136 1    
   139   71  137 1    
@<TRIPOS>SUBSTRUCTURE
     1 UNK         1 GROUP             0       ****    0 ROOT    
