@<TRIPOS>MOLECULE
3R136
137   139    1
SMALL
USER_CHARGES


@<TRIPOS>ATOM
      1 CA         26.5616   21.9318    1.1975 C.3       0 UNK        -0.1979 
      2 C          26.9962   23.3769    0.9766 C.2       0 UNK         0.4864 
      3 O          26.3348   24.2862    1.4769 O.2       0 UNK        -0.5359 
      4 N          28.0865   23.6409    0.2484 N.am      1 UNK        -0.4318 
      5 CA         28.9217   22.6925   -0.4899 C.3       1 UNK         0.0824 
      6 C6         30.1630   22.2271    0.3242 C.3       12 UNK        -0.0944 
      7 S7         31.3017   23.5629    0.8433 S.3       12 UNK        -0.2672 
      8 C8         31.8666   22.9788    2.4694 C.3       12 UNK         0.0333 
      9 C9         31.3097   23.8395    3.5917 C.ar      12 UNK        -0.0807 
     10 C10        31.9861   25.0013    3.9691 C.ar      12 UNK        -0.0894 
     11 C11        31.5244   25.7823    5.0310 C.ar      12 UNK        -0.0804 
     12 C12        30.3744   25.3906    5.7215 C.ar      12 UNK        -0.0824 
     13 C13        29.6751   24.2375    5.3434 C.ar      12 UNK        -0.0762 
     14 C14        30.1467   23.4679    4.2731 C.ar      12 UNK        -0.0782 
     15 C15        28.4405   23.7884    6.1183 C.3       12 UNK         0.0230 
     16 S16        27.2225   25.1203    6.3796 S.3       12 UNK        -0.2608 
     17 C17        26.6268   25.4360    4.6833 C.3       12 UNK        -0.0989 
     18 CA         27.1105   26.7788    4.0753 C.3       5 UNK         0.0716 
     19 N          26.8170   26.8196    2.6358 N.am      5 UNK        -0.4135 
     20 C          27.1098   27.8178    1.7929 C.2       4 UNK         0.5031 
     21 O          27.7012   28.8480    2.1198 O.2       4 UNK        -0.5229 
     22 CA         26.5784   27.6836    0.3568 C.3       4 UNK         0.0329 
     23 CB         25.4032   28.6512    0.1378 C.3       4 UNK        -0.2001 
     24 N          27.6059   27.9365   -0.6554 N.am      4 UNK        -0.4303 
     25 C          28.7142   27.2020   -0.7963 C.2       3 UNK         0.5044 
     26 O          29.0177   26.2684   -0.0481 O.2       3 UNK        -0.5152 
     27 CA         29.6275   27.5387   -1.9817 C.3       3 UNK         0.0319 
     28 CB         30.5823   28.6917   -1.6371 C.3       3 UNK        -0.2001 
     29 N          30.3890   26.3275   -2.2617 N.am      3 UNK        -0.4354 
     30 C          30.4919   25.7195   -3.4477 C.2       2 UNK         0.4964 
     31 O          30.2091   26.2472   -4.5238 O.2       2 UNK        -0.5047 
     32 CA         30.9408   24.2454   -3.4153 C.3       2 UNK         0.0288 
     33 CB         32.4711   24.1435   -3.5202 C.3       2 UNK        -0.2113 
     34 N          30.4894   23.5383   -2.2089 N.am      2 UNK        -0.4145 
     35 C          29.2102   23.3029   -1.8779 C.2       1 UNK         0.5006 
     36 O          28.2611   23.5620   -2.6214 O.2       1 UNK        -0.5103 
     37 C          26.5433   28.0004    4.8402 C.2       5 UNK         0.5055 
     38 O          27.1824   28.4826    5.7755 O.2       5 UNK        -0.5220 
     39 N          25.3787   28.5048    4.4020 N.am      6 UNK        -0.4450 
     40 CA         24.7395   29.7159    4.9247 C.3       6 UNK         0.0367 
     41 CB         23.3161   29.8240    4.3544 C.3       6 UNK        -0.1929 
     42 C          25.5308   31.0074    4.6395 C.2       6 UNK         0.5070 
     43 O          25.4763   31.9325    5.4503 O.2       6 UNK        -0.5237 
     44 N          26.2462   31.0537    3.5065 N.am      7 UNK        -0.4739 
     45 CA         27.1548   32.1476    3.1505 C.3       7 UNK         0.0276 
     46 CB         27.2497   32.2617    1.6194 C.3       7 UNK        -0.1927 
     47 C          28.5477   31.9370    3.7657 C.2       7 UNK         0.5013 
     48 O          29.1857   32.9111    4.1645 O.2       7 UNK        -0.5193 
     49 N          28.9813   30.6683    3.8238 N.am      8 UNK        -0.4253 
     50 CA         30.2331   30.1554    4.3920 C.3       8 UNK         0.0242 
     51 CB         30.3291   30.4624    5.9016 C.3       8 UNK        -0.2000 
     52 C          31.4990   30.5809    3.6245 C.2       8 UNK         0.4948 
     53 O          32.6000   30.4457    4.1588 O.2       8 UNK        -0.5275 
     54 N          31.3454   31.0399    2.3727 N.am      9 UNK        -0.4246 
     55 CA         32.4316   31.5244    1.5107 C.3       9 UNK         0.0261 
     56 CB         31.8401   32.0828    0.2070 C.3       9 UNK        -0.1959 
     57 C          33.5158   30.4727    1.2118 C.2       9 UNK         0.5033 
     58 O          34.6827   30.8342    1.0560 O.2       9 UNK        -0.5390 
     59 N          33.1259   29.1901    1.1969 N.am      10 UNK        -0.4215 
     60 CA         34.0205   28.0367    1.0621 C.3       10 UNK         0.0240 
     61 CB         33.1788   26.7699    0.8277 C.3       10 UNK        -0.1982 
     62 C          34.9905   27.8486    2.2476 C.2       10 UNK         0.4970 
     63 O          36.0068   27.1743    2.0773 O.2       10 UNK        -0.4916 
     64 N          34.6810   28.4487    3.4050 N.am      11 UNK        -0.4279 
     65 CA         35.5479   28.4983    4.5917 C.3       11 UNK         0.1003 
     66 C          36.4495   29.7679    4.6308 C.2       11 UNK         0.5709 
     67 N          36.4079   30.6602    3.6459 N.am      11 UNK        -0.7358 
     68 O          37.2265   29.9393    5.5674 O.2       11 UNK        -0.4999 
     69 C69        34.7296   28.3284    5.9023 C.3       12 UNK        -0.0954 
     70 S70        33.9446   26.6867    6.0215 S.3       12 UNK        -0.2268 
     71 C71        32.2686   27.0509    5.4148 C.3       12 UNK         0.0203 
     72 H72        25.8084   21.8777    1.9833 H         1 UNK         0.0888 
     73 H73        26.1264   21.5203    0.2873 H         1 UNK         0.0888 
     74 H74        27.4002   21.3074    1.5029 H         1 UNK         0.0888 
     75 H75        28.3769   24.6130    0.1435 H         1 UNK         0.3017 
     76 H76        28.3374   21.7996   -0.7170 H         1 UNK         0.0873 
     77 H77        29.8129   21.7031    1.2141 H         1 UNK         0.0745 
     78 H78        30.7319   21.4857   -0.2398 H         1 UNK         0.0745 
     79 H79        31.6053   21.9310    2.6225 H         1 UNK         0.0705 
     80 H80        32.9569   23.0161    2.4881 H         1 UNK         0.0705 
     81 H81        32.8871   25.2914    3.4465 H         1 UNK         0.1334 
     82 H82        30.0181   25.9846    6.5521 H         1 UNK         0.1417 
     83 H83        29.6230   22.5677    3.9815 H         1 UNK         0.1562 
     84 H84        28.7617   23.4168    7.0921 H         1 UNK         0.0748 
     85 H85        27.9469   22.9525    5.6198 H         1 UNK         0.0748 
     86 H86        25.5363   25.3859    4.6857 H         1 UNK         0.0940 
     87 H87        26.9552   24.6088    4.0524 H         1 UNK         0.0940 
     88 H88        28.1980   26.8214    4.1654 H         1 UNK         0.0703 
     89 H89        26.4169   25.9683    2.2432 H         1 UNK         0.3081 
     90 H90        26.2143   26.6653    0.2069 H         1 UNK         0.0719 
     91 H91        25.7114   29.6925    0.2415 H         1 UNK         0.0809 
     92 H92        24.9669   28.5279   -0.8536 H         1 UNK         0.0809 
     93 H93        24.6075   28.4730    0.8623 H         1 UNK         0.0809 
     94 H94        27.4406   28.7043   -1.2896 H         1 UNK         0.2990 
     95 H95        29.0096   27.8113   -2.8401 H         1 UNK         0.0690 
     96 H96        31.3033   28.8627   -2.4366 H         1 UNK         0.0788 
     97 H97        31.1370   28.4962   -0.7207 H         1 UNK         0.0788 
     98 H98        30.0284   29.6197   -1.4938 H         1 UNK         0.0788 
     99 H99        30.5817   25.7800   -1.4319 H         1 UNK         0.2993 
    100 H100       30.4989   23.7479   -4.2814 H         1 UNK         0.0949 
    101 H101       32.8344   24.6439   -4.4190 H         1 UNK         0.0767 
    102 H102       32.9666   24.6065   -2.6655 H         1 UNK         0.0767 
    103 H103       32.7966   23.1044   -3.5753 H         1 UNK         0.0767 
    104 H104       31.1952   23.3191   -1.5173 H         1 UNK         0.3013 
    105 H105       24.9140   28.0385    3.6370 H         1 UNK         0.3121 
    106 H106       24.6658   29.6112    6.0094 H         1 UNK         0.0774 
    107 H107       22.8051   30.7038    4.7482 H         1 UNK         0.0815 
    108 H108       23.3207   29.9105    3.2671 H         1 UNK         0.0815 
    109 H109       22.7131   28.9560    4.6217 H         1 UNK         0.0815 
    110 H110       26.2845   30.2294    2.9207 H         1 UNK         0.2987 
    111 H111       26.7578   33.0897    3.5359 H         1 UNK         0.0949 
    112 H112       27.6510   31.3559    1.1638 H         1 UNK         0.0806 
    113 H113       26.2722   32.4530    1.1766 H         1 UNK         0.0806 
    114 H114       27.9020   33.0872    1.3311 H         1 UNK         0.0806 
    115 H115       28.3984   29.9642    3.3737 H         1 UNK         0.3010 
    116 H116       30.1742   29.0713    4.2852 H         1 UNK         0.0829 
    117 H117       29.4457   30.1074    6.4328 H         1 UNK         0.0813 
    118 H118       31.1938   29.9736    6.3511 H         1 UNK         0.0813 
    119 H119       30.4304   31.5308    6.0929 H         1 UNK         0.0813 
    120 H120       30.4062   31.1118    2.0097 H         1 UNK         0.3038 
    121 H121       32.9206   32.3450    2.0401 H         1 UNK         0.0769 
    122 H122       31.3039   31.3187   -0.3547 H         1 UNK         0.0811 
    123 H123       32.6257   32.4726   -0.4420 H         1 UNK         0.0811 
    124 H124       31.1493   32.9031    0.4035 H         1 UNK         0.0811 
    125 H125       32.1487   28.9928    1.3518 H         1 UNK         0.3204 
    126 H126       34.6394   28.1980    0.1769 H         1 UNK         0.0748 
    127 H127       32.6956   26.7910   -0.1487 H         1 UNK         0.0771 
    128 H128       33.7962   25.8706    0.8532 H         1 UNK         0.0771 
    129 H129       32.3994   26.6532    1.5807 H         1 UNK         0.0771 
    130 H130       33.8561   29.0362    3.4612 H         1 UNK         0.2980 
    131 H131       36.2481   27.6623    4.5469 H         1 UNK         0.0545 
    132 H132       37.0086   31.4674    3.6944 H         1 UNK         0.3459 
    133 H133       35.7912   30.5417    2.8522 H         1 UNK         0.3459 
    134 H134       33.9749   29.1100    5.9999 H         1 UNK         0.0616 
    135 H135       35.3787   28.4273    6.7741 H         1 UNK         0.0616 
    136 H136       31.7270   27.6074    6.1805 H         1 UNK         0.0634 
    137 H137       32.3236   27.6949    4.5383 H         1 UNK         0.0634 
@<TRIPOS>BOND
     1    1    2 1    
     2    1   72 1    
     3    1   73 1    
     4    1   74 1    
     5    2    3 2    
     6    2    4 am   BACKBONE|DICT|INTERRES
     7    4    5 1    
     8    4   75 1    
     9    5    6 1    
    10    5   35 1    
    11    5   76 1    
    12    6    7 1    
    13    6   77 1    
    14    6   78 1    
    15    7    8 1    
    16    8    9 1    
    17    8   79 1    
    18    8   80 1    
    19    9   10 ar   
    20    9   14 ar   
    21   10   11 ar   
    22   10   81 1    
    23   11   12 ar   
    24   11   71 1    
    25   12   13 ar   
    26   12   82 1    
    27   13   14 ar   
    28   13   15 1    
    29   14   83 1    
    30   15   16 1    
    31   15   84 1    
    32   15   85 1    
    33   16   17 1    
    34   17   18 1    
    35   17   86 1    
    36   17   87 1    
    37   18   19 1    
    38   18   37 1    
    39   18   88 1    
    40   19   20 am   BACKBONE|DICT|INTERRES
    41   19   89 1    
    42   20   21 2    
    43   20   22 1    
    44   22   23 1    
    45   22   24 1    
    46   22   90 1    
    47   23   91 1    
    48   23   92 1    
    49   23   93 1    
    50   24   25 am   BACKBONE|DICT|INTERRES
    51   24   94 1    
    52   25   26 2    
    53   25   27 1    
    54   27   28 1    
    55   27   29 1    
    56   27   95 1    
    57   28   96 1    
    58   28   97 1    
    59   28   98 1    
    60   29   30 am   BACKBONE|DICT|INTERRES
    61   29   99 1    
    62   30   31 2    
    63   30   32 1    
    64   32   33 1    
    65   32   34 1    
    66   32  100 1    
    67   33  101 1    
    68   33  102 1    
    69   33  103 1    
    70   34   35 am   BACKBONE|DICT|INTERRES
    71   34  104 1    
    72   35   36 2    
    73   37   38 2    
    74   37   39 am   BACKBONE|DICT|INTERRES
    75   39   40 1    
    76   39  105 1    
    77   40   41 1    
    78   40   42 1    
    79   40  106 1    
    80   41  107 1    
    81   41  108 1    
    82   41  109 1    
    83   42   43 2    
    84   42   44 am   BACKBONE|DICT|INTERRES
    85   44   45 1    
    86   44  110 1    
    87   45   46 1    
    88   45   47 1    
    89   45  111 1    
    90   46  112 1    
    91   46  113 1    
    92   46  114 1    
    93   47   48 2    
    94   47   49 am   BACKBONE|DICT|INTERRES
    95   49   50 1    
    96   49  115 1    
    97   50   51 1    
    98   50   52 1    
    99   50  116 1    
   100   51  117 1    
   101   51  118 1    
   102   51  119 1    
   103   52   53 2    
   104   52   54 am   BACKBONE|DICT|INTERRES
   105   54   55 1    
   106   54  120 1    
   107   55   56 1    
   108   55   57 1    
   109   55  121 1    
   110   56  122 1    
   111   56  123 1    
   112   56  124 1    
   113   57   58 2    
   114   57   59 am   BACKBONE|DICT|INTERRES
   115   59   60 1    
   116   59  125 1    
   117   60   61 1    
   118   60   62 1    
   119   60  126 1    
   120   61  127 1    
   121   61  128 1    
   122   61  129 1    
   123   62   63 2    
   124   62   64 am   BACKBONE|DICT|INTERRES
   125   64   65 1    
   126   64  130 1    
   127   65   66 1    
   128   65   69 1    
   129   65  131 1    
   130   66   67 am   BACKBONE|DICT|INTERRES
   131   66   68 2    
   132   67  132 1    
   133   67  133 1    
   134   69   70 1    
   135   69  134 1    
   136   69  135 1    
   137   70   71 1    
   138   71  136 1    
   139   71  137 1    
@<TRIPOS>SUBSTRUCTURE
     1 UNK         1 GROUP             0       ****    0 ROOT    
