@<TRIPOS>MOLECULE
3R136
137   139    1
SMALL
USER_CHARGES


@<TRIPOS>ATOM
      1 CA         27.5356   19.0845   -2.0299 C.3       0 UNK        -0.1979 
      2 C          27.7231   20.5805   -1.8284 C.2       0 UNK         0.4864 
      3 O          27.3280   21.3701   -2.6874 O.2       0 UNK        -0.5359 
      4 N          28.3035   20.9834   -0.6906 N.am      1 UNK        -0.4318 
      5 CA         28.6295   22.3679   -0.3167 C.3       1 UNK         0.0824 
      6 C6         29.7124   22.4051    0.7962 C.3       12 UNK        -0.0944 
      7 S7         31.3027   21.6849    0.2810 S.3       12 UNK        -0.2672 
      8 C8         32.1621   21.5725    1.8853 C.3       12 UNK         0.0333 
      9 C9         32.3162   22.9309    2.5598 C.ar      12 UNK        -0.0807 
     10 C10        33.2319   23.8626    2.0626 C.ar      12 UNK        -0.0894 
     11 C11        33.3928   25.1040    2.6852 C.ar      12 UNK        -0.0804 
     12 C12        32.6128   25.4175    3.8024 C.ar      12 UNK        -0.0824 
     13 C13        31.6871   24.4988    4.3105 C.ar      12 UNK        -0.0762 
     14 C14        31.5569   23.2496    3.6910 C.ar      12 UNK        -0.0782 
     15 C15        30.8816   24.8668    5.5574 C.3       12 UNK         0.0230 
     16 S16        29.1468   24.2795    5.5838 S.3       12 UNK        -0.2608 
     17 C17        28.4597   24.7263    3.9500 C.3       12 UNK        -0.0989 
     18 CA         28.7092   26.1814    3.4781 C.3       5 UNK         0.0716 
     19 N          28.7795   26.2566    2.0153 N.am      5 UNK        -0.4135 
     20 C          29.3557   27.2587    1.3391 C.2       4 UNK         0.5031 
     21 O          29.8308   28.2546    1.8801 O.2       4 UNK        -0.5229 
     22 CA         29.3655   27.1580   -0.1932 C.3       4 UNK         0.0329 
     23 CB         30.3757   26.1078   -0.6814 C.3       4 UNK        -0.2001 
     24 N          28.0468   26.8691   -0.7570 N.am      4 UNK        -0.4303 
     25 C          27.0104   27.7189   -0.7543 C.2       3 UNK         0.5044 
     26 O          27.0357   28.8308   -0.2285 O.2       3 UNK        -0.5152 
     27 CA         25.7325   27.2523   -1.4715 C.3       3 UNK         0.0319 
     28 CB         25.7737   27.6511   -2.9555 C.3       3 UNK        -0.2001 
     29 N          25.5264   25.8056   -1.3626 N.am      3 UNK        -0.4354 
     30 C          25.0156   25.2065   -0.2788 C.2       2 UNK         0.4964 
     31 O          24.6266   25.8099    0.7214 O.2       2 UNK        -0.5047 
     32 CA         24.9666   23.6694   -0.3046 C.3       2 UNK         0.0288 
     33 CB         23.8940   23.1629   -1.2835 C.3       2 UNK        -0.2113 
     34 N          26.2570   23.0439   -0.6182 N.am      2 UNK        -0.4145 
     35 C          27.3887   23.2082    0.0810 C.2       1 UNK         0.5006 
     36 O          27.4767   24.0004    1.0193 O.2       1 UNK        -0.5103 
     37 C          27.6941   27.1799    4.0727 C.2       5 UNK         0.5055 
     38 O          27.8277   27.5592    5.2360 O.2       5 UNK        -0.5220 
     39 N          26.7347   27.6467    3.2587 N.am      6 UNK        -0.4450 
     40 CA         25.8433   28.7629    3.5890 C.3       6 UNK         0.0367 
     41 CB         24.6898   28.8116    2.5746 C.3       6 UNK        -0.1929 
     42 C          26.5707   30.1224    3.6534 C.2       6 UNK         0.5070 
     43 O          26.0388   31.0557    4.2546 O.2       6 UNK        -0.5237 
     44 N          27.7680   30.2109    3.0586 N.am      7 UNK        -0.4739 
     45 CA         28.6504   31.3748    3.0707 C.3       7 UNK         0.0276 
     46 CB         28.7688   31.9228    1.6364 C.3       7 UNK        -0.1927 
     47 C          30.0145   30.9825    3.6632 C.2       7 UNK         0.5013 
     48 O          31.0513   31.3868    3.1334 O.2       7 UNK        -0.5193 
     49 N          29.9999   30.2031    4.7575 N.am      8 UNK        -0.4253 
     50 CA         31.1787   29.6310    5.4256 C.3       8 UNK         0.0242 
     51 CB         30.7418   28.8783    6.6922 C.3       8 UNK        -0.2000 
     52 C          32.2867   30.6400    5.7767 C.2       8 UNK         0.4948 
     53 O          33.4640   30.2929    5.6885 O.2       8 UNK        -0.5275 
     54 N          31.8959   31.8736    6.1273 N.am      9 UNK        -0.4246 
     55 CA         32.8022   32.9922    6.4010 C.3       9 UNK         0.0261 
     56 CB         32.0005   34.1567    7.0050 C.3       9 UNK        -0.1959 
     57 C          33.5958   33.4680    5.1684 C.2       9 UNK         0.5033 
     58 O          34.7013   33.9846    5.3373 O.2       9 UNK        -0.5390 
     59 N          33.0330   33.2901    3.9648 N.am      10 UNK        -0.4215 
     60 CA         33.6997   33.5640    2.6915 C.3       10 UNK         0.0240 
     61 CB         32.6677   34.0446    1.6573 C.3       10 UNK        -0.1982 
     62 C          34.4427   32.3199    2.1817 C.2       10 UNK         0.4970 
     63 O          35.5408   32.4602    1.6420 O.2       10 UNK        -0.4916 
     64 N          33.8387   31.1356    2.3593 N.am      11 UNK        -0.4279 
     65 CA         34.4226   29.8349    2.0020 C.3       11 UNK         0.1003 
     66 C          35.7171   29.4927    2.7935 C.2       11 UNK         0.5709 
     67 N          35.7577   29.7224    4.0999 N.am      11 UNK        -0.7358 
     68 O          36.6958   29.0267    2.2152 O.2       11 UNK        -0.4999 
     69 C69        33.3688   28.6993    2.0975 C.3       12 UNK        -0.0954 
     70 S70        33.7573   27.2914    1.0048 S.3       12 UNK        -0.2268 
     71 C71        34.4449   26.0797    2.1757 C.3       12 UNK         0.0203 
     72 H72        27.9273   18.5080   -1.1920 H         1 UNK         0.0888 
     73 H73        26.4769   18.8502   -2.1381 H         1 UNK         0.0888 
     74 H74        28.0509   18.7612   -2.9339 H         1 UNK         0.0888 
     75 H75        28.5913   20.2853   -0.0197 H         1 UNK         0.3017 
     76 H76        29.0467   22.8574   -1.1993 H         1 UNK         0.0873 
     77 H77        29.9274   23.4286    1.1055 H         1 UNK         0.0745 
     78 H78        29.3581   21.8864    1.6891 H         1 UNK         0.0745 
     79 H79        33.1488   21.1352    1.7264 H         1 UNK         0.0705 
     80 H80        31.6223   20.8781    2.5311 H         1 UNK         0.0705 
     81 H81        33.8278   23.6139    1.1949 H         1 UNK         0.1334 
     82 H82        32.7417   26.3740    4.2892 H         1 UNK         0.1417 
     83 H83        30.8593   22.5250    4.0879 H         1 UNK         0.1562 
     84 H84        30.8804   25.9468    5.7048 H         1 UNK         0.0748 
     85 H85        31.3928   24.4508    6.4263 H         1 UNK         0.0748 
     86 H86        27.3941   24.4885    3.9374 H         1 UNK         0.0940 
     87 H87        28.9075   24.0280    3.2438 H         1 UNK         0.0940 
     88 H88        29.6867   26.5045    3.8346 H         1 UNK         0.0703 
     89 H89        28.3546   25.4797    1.5112 H         1 UNK         0.3081 
     90 H90        29.6873   28.1293   -0.5758 H         1 UNK         0.0719 
     91 H91        30.0551   25.0941   -0.4516 H         1 UNK         0.0809 
     92 H92        30.5240   26.1739   -1.7592 H         1 UNK         0.0809 
     93 H93        31.3492   26.2512   -0.2137 H         1 UNK         0.0809 
     94 H94        27.9273   25.9759   -1.2087 H         1 UNK         0.2990 
     95 H95        24.8866   27.7660   -1.0088 H         1 UNK         0.0690 
     96 H96        26.5954   27.1668   -3.4847 H         1 UNK         0.0788 
     97 H97        25.9057   28.7285   -3.0652 H         1 UNK         0.0788 
     98 H98        24.8454   27.3871   -3.4624 H         1 UNK         0.0788 
     99 H99        25.8074   25.2348   -2.1470 H         1 UNK         0.2993 
    100 H100       24.6872   23.3424    0.6993 H         1 UNK         0.0949 
    101 H101       24.1441   23.3965   -2.3191 H         1 UNK         0.0767 
    102 H102       23.7683   22.0827   -1.2065 H         1 UNK         0.0767 
    103 H103       22.9247   23.6161   -1.0703 H         1 UNK         0.0767 
    104 H104       26.2940   22.4130   -1.4138 H         1 UNK         0.3013 
    105 H105       26.6772   27.2821    2.3183 H         1 UNK         0.3121 
    106 H106       25.4182   28.5751    4.5773 H         1 UNK         0.0774 
    107 H107       23.9862   29.6074    2.8225 H         1 UNK         0.0815 
    108 H108       25.0478   28.9990    1.5623 H         1 UNK         0.0815 
    109 H109       24.1292   27.8767    2.5646 H         1 UNK         0.0815 
    110 H110       28.1542   29.3904    2.6034 H         1 UNK         0.2987 
    111 H111       28.2441   32.1624    3.7085 H         1 UNK         0.0949 
    112 H112       29.2249   31.1921    0.9665 H         1 UNK         0.0806 
    113 H113       27.7915   32.1835    1.2302 H         1 UNK         0.0806 
    114 H114       29.3824   32.8240    1.6083 H         1 UNK         0.0806 
    115 H115       29.1001   29.9013    5.1054 H         1 UNK         0.3010 
    116 H116       31.6081   28.9062    4.7325 H         1 UNK         0.0829 
    117 H117       31.5992   28.4299    7.1965 H         1 UNK         0.0813 
    118 H118       30.2525   29.5407    7.4072 H         1 UNK         0.0813 
    119 H119       30.0507   28.0698    6.4606 H         1 UNK         0.0813 
    120 H120       30.9056   32.0639    6.1773 H         1 UNK         0.3038 
    121 H121       33.5284   32.6558    7.1442 H         1 UNK         0.0769 
    122 H122       32.6544   34.9959    7.2467 H         1 UNK         0.0811 
    123 H123       31.5033   33.8604    7.9289 H         1 UNK         0.0811 
    124 H124       31.2398   34.5250    6.3155 H         1 UNK         0.0811 
    125 H125       32.1472   32.7970    3.9046 H         1 UNK         0.3204 
    126 H126       34.4329   34.3623    2.8264 H         1 UNK         0.0748 
    127 H127       33.1530   34.2972    0.7136 H         1 UNK         0.0771 
    128 H128       31.9183   33.2822    1.4424 H         1 UNK         0.0771 
    129 H129       32.1470   34.9377    2.0031 H         1 UNK         0.0771 
    130 H130       32.9059   31.1186    2.7598 H         1 UNK         0.2980 
    131 H131       34.7121   29.9265    0.9531 H         1 UNK         0.0545 
    132 H132       34.9345   30.0502    4.6009 H         1 UNK         0.3459 
    133 H133       36.5993   29.5103    4.6102 H         1 UNK         0.3459 
    134 H134       33.2370   28.3639    3.1261 H         1 UNK         0.0616 
    135 H135       32.3935   29.0719    1.7812 H         1 UNK         0.0616 
    136 H136       34.9231   26.5900    3.0127 H         1 UNK         0.0634 
    137 H137       35.2411   25.5314    1.6700 H         1 UNK         0.0634 
@<TRIPOS>BOND
     1    1    2 1    
     2    1   72 1    
     3    1   73 1    
     4    1   74 1    
     5    2    3 2    
     6    2    4 am   BACKBONE|DICT|INTERRES
     7    4    5 1    
     8    4   75 1    
     9    5    6 1    
    10    5   35 1    
    11    5   76 1    
    12    6    7 1    
    13    6   77 1    
    14    6   78 1    
    15    7    8 1    
    16    8    9 1    
    17    8   79 1    
    18    8   80 1    
    19    9   10 ar   
    20    9   14 ar   
    21   10   11 ar   
    22   10   81 1    
    23   11   12 ar   
    24   11   71 1    
    25   12   13 ar   
    26   12   82 1    
    27   13   14 ar   
    28   13   15 1    
    29   14   83 1    
    30   15   16 1    
    31   15   84 1    
    32   15   85 1    
    33   16   17 1    
    34   17   18 1    
    35   17   86 1    
    36   17   87 1    
    37   18   19 1    
    38   18   37 1    
    39   18   88 1    
    40   19   20 am   BACKBONE|DICT|INTERRES
    41   19   89 1    
    42   20   21 2    
    43   20   22 1    
    44   22   23 1    
    45   22   24 1    
    46   22   90 1    
    47   23   91 1    
    48   23   92 1    
    49   23   93 1    
    50   24   25 am   BACKBONE|DICT|INTERRES
    51   24   94 1    
    52   25   26 2    
    53   25   27 1    
    54   27   28 1    
    55   27   29 1    
    56   27   95 1    
    57   28   96 1    
    58   28   97 1    
    59   28   98 1    
    60   29   30 am   BACKBONE|DICT|INTERRES
    61   29   99 1    
    62   30   31 2    
    63   30   32 1    
    64   32   33 1    
    65   32   34 1    
    66   32  100 1    
    67   33  101 1    
    68   33  102 1    
    69   33  103 1    
    70   34   35 am   BACKBONE|DICT|INTERRES
    71   34  104 1    
    72   35   36 2    
    73   37   38 2    
    74   37   39 am   BACKBONE|DICT|INTERRES
    75   39   40 1    
    76   39  105 1    
    77   40   41 1    
    78   40   42 1    
    79   40  106 1    
    80   41  107 1    
    81   41  108 1    
    82   41  109 1    
    83   42   43 2    
    84   42   44 am   BACKBONE|DICT|INTERRES
    85   44   45 1    
    86   44  110 1    
    87   45   46 1    
    88   45   47 1    
    89   45  111 1    
    90   46  112 1    
    91   46  113 1    
    92   46  114 1    
    93   47   48 2    
    94   47   49 am   BACKBONE|DICT|INTERRES
    95   49   50 1    
    96   49  115 1    
    97   50   51 1    
    98   50   52 1    
    99   50  116 1    
   100   51  117 1    
   101   51  118 1    
   102   51  119 1    
   103   52   53 2    
   104   52   54 am   BACKBONE|DICT|INTERRES
   105   54   55 1    
   106   54  120 1    
   107   55   56 1    
   108   55   57 1    
   109   55  121 1    
   110   56  122 1    
   111   56  123 1    
   112   56  124 1    
   113   57   58 2    
   114   57   59 am   BACKBONE|DICT|INTERRES
   115   59   60 1    
   116   59  125 1    
   117   60   61 1    
   118   60   62 1    
   119   60  126 1    
   120   61  127 1    
   121   61  128 1    
   122   61  129 1    
   123   62   63 2    
   124   62   64 am   BACKBONE|DICT|INTERRES
   125   64   65 1    
   126   64  130 1    
   127   65   66 1    
   128   65   69 1    
   129   65  131 1    
   130   66   67 am   BACKBONE|DICT|INTERRES
   131   66   68 2    
   132   67  132 1    
   133   67  133 1    
   134   69   70 1    
   135   69  134 1    
   136   69  135 1    
   137   70   71 1    
   138   71  136 1    
   139   71  137 1    
@<TRIPOS>SUBSTRUCTURE
     1 UNK         1 GROUP             0       ****    0 ROOT    
