@<TRIPOS>MOLECULE
3R136
137   139    1
SMALL
USER_CHARGES


@<TRIPOS>ATOM
      1 CA         33.6743   24.9992    1.2780 C.3       0 UNK        -0.1979 
      2 C          32.1700   25.2134    1.2029 C.2       0 UNK         0.4864 
      3 O          31.7127   26.3531    1.2875 O.2       0 UNK        -0.5359 
      4 N          31.4036   24.1235    1.0501 N.am      1 UNK        -0.4318 
      5 CA         29.9376   24.1258    1.0002 C.3       1 UNK         0.0824 
      6 C6         29.3231   22.6986    1.0081 C.3       12 UNK        -0.0944 
      7 S7         30.0137   21.5830    2.2721 S.3       12 UNK        -0.2672 
      8 C8         28.7428   21.6586    3.5747 C.3       12 UNK         0.0333 
      9 C9         28.7943   22.9581    4.3674 C.ar      12 UNK        -0.0807 
     10 C10        29.9957   23.3761    4.9488 C.ar      12 UNK        -0.0894 
     11 C11        30.0517   24.5437    5.7120 C.ar      12 UNK        -0.0804 
     12 C12        28.8817   25.2766    5.9261 C.ar      12 UNK        -0.0824 
     13 C13        27.6736   24.8777    5.3434 C.ar      12 UNK        -0.0762 
     14 C14        27.6369   23.7212    4.5572 C.ar      12 UNK        -0.0782 
     15 C15        26.4065   25.6782    5.6090 C.3       12 UNK         0.0230 
     16 S16        26.4721   27.3332    4.8514 S.3       12 UNK        -0.2608 
     17 C17        25.6153   27.1090    3.2508 C.3       12 UNK        -0.0989 
     18 CA         26.5682   27.1514    2.0230 C.3       5 UNK         0.0716 
     19 N          25.9437   26.7497    0.7569 N.am      5 UNK        -0.4135 
     20 C          24.8584   27.2969    0.1876 C.2       4 UNK         0.5031 
     21 O          24.1246   28.1118    0.7478 O.2       4 UNK        -0.5229 
     22 CA         24.5329   26.9151   -1.2688 C.3       4 UNK         0.0329 
     23 CB         24.7778   28.1171   -2.1973 C.3       4 UNK        -0.2001 
     24 N          25.2873   25.7750   -1.7897 N.am      4 UNK        -0.4303 
     25 C          25.0434   24.4853   -1.5355 C.2       3 UNK         0.5044 
     26 O          24.1759   24.0992   -0.7522 O.2       3 UNK        -0.5152 
     27 CA         25.9061   23.4436   -2.2789 C.3       3 UNK         0.0319 
     28 CB         25.3139   23.1280   -3.6661 C.3       3 UNK        -0.2001 
     29 N          27.3385   23.7729   -2.3673 N.am      3 UNK        -0.4354 
     30 C          27.9434   24.7944   -2.9970 C.2       2 UNK         0.4964 
     31 O          27.3466   25.6107   -3.7011 O.2       2 UNK        -0.5047 
     32 CA         29.4589   24.9628   -2.7464 C.3       2 UNK         0.0288 
     33 CB         29.9319   26.4101   -2.9875 C.3       2 UNK        -0.2113 
     34 N          29.8875   24.5022   -1.4159 N.am      2 UNK        -0.4145 
     35 C          29.4080   24.8970   -0.2234 C.2       1 UNK         0.5006 
     36 O          28.5643   25.7821   -0.0723 O.2       1 UNK        -0.5103 
     37 C          27.2911   28.4982    1.8082 C.2       5 UNK         0.5055 
     38 O          26.8777   29.5338    2.3323 O.2       5 UNK        -0.5220 
     39 N          28.3748   28.4514    1.0218 N.am      6 UNK        -0.4450 
     40 CA         29.2697   29.5790    0.7297 C.3       6 UNK         0.0367 
     41 CB         29.9660   29.3265   -0.6178 C.3       6 UNK        -0.1929 
     42 C          30.2940   29.8617    1.8502 C.2       6 UNK         0.5070 
     43 O          31.2837   30.5549    1.6073 O.2       6 UNK        -0.5237 
     44 N          30.0386   29.3408    3.0593 N.am      7 UNK        -0.4739 
     45 CA         30.8913   29.3844    4.2493 C.3       7 UNK         0.0276 
     46 CB         30.1407   28.7321    5.4157 C.3       7 UNK        -0.1927 
     47 C          31.3870   30.7817    4.6467 C.2       7 UNK         0.5013 
     48 O          32.5133   30.8966    5.1286 O.2       7 UNK        -0.5193 
     49 N          30.5849   31.8198    4.3729 N.am      8 UNK        -0.4253 
     50 CA         30.9319   33.2335    4.5580 C.3       8 UNK         0.0242 
     51 CB         29.7259   34.1007    4.1616 C.3       8 UNK        -0.2000 
     52 C          32.1950   33.6905    3.7977 C.2       8 UNK         0.4948 
     53 O          32.8100   34.6755    4.2084 O.2       8 UNK        -0.5275 
     54 N          32.5681   32.9703    2.7309 N.am      9 UNK        -0.4246 
     55 CA         33.7964   33.1670    1.9626 C.3       9 UNK         0.0261 
     56 CB         33.4154   33.6064    0.5361 C.3       9 UNK        -0.1959 
     57 C          34.6663   31.8938    1.9564 C.2       9 UNK         0.5033 
     58 O          35.5146   31.7585    1.0718 O.2       9 UNK        -0.5390 
     59 N          34.4535   30.9766    2.9118 N.am      10 UNK        -0.4215 
     60 CA         35.1144   29.6746    2.9722 C.3       10 UNK         0.0240 
     61 CB         34.4266   28.6860    2.0013 C.3       10 UNK        -0.1982 
     62 C          35.1980   29.1890    4.4291 C.2       10 UNK         0.4970 
     63 O          35.9060   29.8045    5.2264 O.2       10 UNK        -0.4916 
     64 N          34.5155   28.0796    4.7345 N.am      11 UNK        -0.4279 
     65 CA         34.5650   27.3242    5.9968 C.3       11 UNK         0.1003 
     66 C          33.9699   28.0009    7.2677 C.2       11 UNK         0.5709 
     67 N          33.3849   29.1877    7.2027 N.am      11 UNK        -0.7358 
     68 O          34.0617   27.4370    8.3558 O.2       11 UNK        -0.4999 
     69 C69        34.0354   25.8777    5.7903 C.3       12 UNK        -0.0954 
     70 S70        32.3895   25.7968    5.0013 S.3       12 UNK        -0.2268 
     71 C71        31.3818   25.0031    6.2901 C.3       12 UNK         0.0203 
     72 H72        34.1788   25.6185    0.5369 H         1 UNK         0.0888 
     73 H73        34.0412   25.2778    2.2654 H         1 UNK         0.0888 
     74 H74        33.9480   23.9603    1.0951 H         1 UNK         0.0888 
     75 H75        31.8361   23.2110    1.0210 H         1 UNK         0.3017 
     76 H76        29.5893   24.6483    1.8945 H         1 UNK         0.0873 
     77 H77        29.4833   22.1994    0.0507 H         1 UNK         0.0745 
     78 H78        28.2400   22.7568    1.1339 H         1 UNK         0.0745 
     79 H79        27.7579   21.5006    3.1326 H         1 UNK         0.0705 
     80 H80        28.9045   20.8290    4.2641 H         1 UNK         0.0705 
     81 H81        30.8960   22.7962    4.7974 H         1 UNK         0.1334 
     82 H82        28.9077   26.1654    6.5413 H         1 UNK         0.1417 
     83 H83        26.7022   23.4007    4.1172 H         1 UNK         0.1562 
     84 H84        26.2942   25.8000    6.6874 H         1 UNK         0.0748 
     85 H85        25.5176   25.1402    5.2771 H         1 UNK         0.0748 
     86 H86        24.8547   27.8874    3.1791 H         1 UNK         0.0940 
     87 H87        25.0706   26.1644    3.2585 H         1 UNK         0.0940 
     88 H88        27.3455   26.4096    2.2147 H         1 UNK         0.0703 
     89 H89        26.5150   26.1375    0.1861 H         1 UNK         0.3081 
     90 H90        23.4702   26.6663   -1.3060 H         1 UNK         0.0719 
     91 H91        24.2016   28.9864   -1.8771 H         1 UNK         0.0809 
     92 H92        25.8292   28.4083   -2.2091 H         1 UNK         0.0809 
     93 H93        24.4802   27.8943   -3.2222 H         1 UNK         0.0809 
     94 H94        26.0168   25.9753   -2.4706 H         1 UNK         0.2990 
     95 H95        25.8553   22.5269   -1.6890 H         1 UNK         0.0690 
     96 H96        25.8749   22.3385   -4.1661 H         1 UNK         0.0788 
     97 H97        25.3098   24.0013   -4.3190 H         1 UNK         0.0788 
     98 H98        24.2816   22.7862   -3.5788 H         1 UNK         0.0788 
     99 H99        27.9355   23.1733   -1.8168 H         1 UNK         0.2993 
    100 H100       29.9600   24.3224   -3.4740 H         1 UNK         0.0949 
    101 H101       29.3711   27.1134   -2.3740 H         1 UNK         0.0767 
    102 H102       30.9907   26.5303   -2.7583 H         1 UNK         0.0767 
    103 H103       29.7886   26.7019   -4.0287 H         1 UNK         0.0767 
    104 H104       30.5925   23.7777   -1.4162 H         1 UNK         0.3013 
    105 H105       28.6334   27.5525    0.6199 H         1 UNK         0.3121 
    106 H106       28.6664   30.4833    0.6267 H         1 UNK         0.0774 
    107 H107       30.5751   28.4217   -0.5889 H         1 UNK         0.0815 
    108 H108       29.2374   29.2258   -1.4215 H         1 UNK         0.0815 
    109 H109       30.6230   30.1542   -0.8880 H         1 UNK         0.0815 
    110 H110       29.1812   28.8174    3.1545 H         1 UNK         0.2987 
    111 H111       31.7704   28.7779    4.0291 H         1 UNK         0.0949 
    112 H112       29.8576   27.7141    5.1583 H         1 UNK         0.0806 
    113 H113       30.7621   28.6792    6.3101 H         1 UNK         0.0806 
    114 H114       29.2328   29.2786    5.6742 H         1 UNK         0.0806 
    115 H115       29.6869   31.6216    3.9557 H         1 UNK         0.3010 
    116 H116       31.1284   33.3818    5.6219 H         1 UNK         0.0829 
    117 H117       29.4641   33.9705    3.1108 H         1 UNK         0.0813 
    118 H118       29.9388   35.1597    4.3154 H         1 UNK         0.0813 
    119 H119       28.8476   33.8596    4.7608 H         1 UNK         0.0813 
    120 H120       32.0077   32.1665    2.4537 H         1 UNK         0.3038 
    121 H121       34.4075   33.9530    2.4108 H         1 UNK         0.0769 
    122 H122       32.8077   34.5113    0.5498 H         1 UNK         0.0811 
    123 H123       32.8505   32.8305    0.0173 H         1 UNK         0.0811 
    124 H124       34.3015   33.8236   -0.0617 H         1 UNK         0.0811 
    125 H125       33.7902   31.1699    3.6582 H         1 UNK         0.3204 
    126 H126       36.1502   29.7928    2.6469 H         1 UNK         0.0748 
    127 H127       33.3664   28.5577    2.2225 H         1 UNK         0.0771 
    128 H128       34.4976   29.0362    0.9714 H         1 UNK         0.0771 
    129 H129       34.9015   27.7049    2.0304 H         1 UNK         0.0771 
    130 H130       33.9394   27.6615    4.0194 H         1 UNK         0.2980 
    131 H131       35.6262   27.2261    6.2327 H         1 UNK         0.0545 
    132 H132       33.2991   29.6987    6.3300 H         1 UNK         0.3459 
    133 H133       33.0291   29.5968    8.0508 H         1 UNK         0.3459 
    134 H134       34.0332   25.3177    6.7271 H         1 UNK         0.0616 
    135 H135       34.7240   25.3378    5.1387 H         1 UNK         0.0616 
    136 H136       31.9159   24.1439    6.6985 H         1 UNK         0.0634 
    137 H137       31.2315   25.7029    7.1136 H         1 UNK         0.0634 
@<TRIPOS>BOND
     1    1    2 1    
     2    1   72 1    
     3    1   73 1    
     4    1   74 1    
     5    2    3 2    
     6    2    4 am   BACKBONE|DICT|INTERRES
     7    4    5 1    
     8    4   75 1    
     9    5    6 1    
    10    5   35 1    
    11    5   76 1    
    12    6    7 1    
    13    6   77 1    
    14    6   78 1    
    15    7    8 1    
    16    8    9 1    
    17    8   79 1    
    18    8   80 1    
    19    9   10 ar   
    20    9   14 ar   
    21   10   11 ar   
    22   10   81 1    
    23   11   12 ar   
    24   11   71 1    
    25   12   13 ar   
    26   12   82 1    
    27   13   14 ar   
    28   13   15 1    
    29   14   83 1    
    30   15   16 1    
    31   15   84 1    
    32   15   85 1    
    33   16   17 1    
    34   17   18 1    
    35   17   86 1    
    36   17   87 1    
    37   18   19 1    
    38   18   37 1    
    39   18   88 1    
    40   19   20 am   BACKBONE|DICT|INTERRES
    41   19   89 1    
    42   20   21 2    
    43   20   22 1    
    44   22   23 1    
    45   22   24 1    
    46   22   90 1    
    47   23   91 1    
    48   23   92 1    
    49   23   93 1    
    50   24   25 am   BACKBONE|DICT|INTERRES
    51   24   94 1    
    52   25   26 2    
    53   25   27 1    
    54   27   28 1    
    55   27   29 1    
    56   27   95 1    
    57   28   96 1    
    58   28   97 1    
    59   28   98 1    
    60   29   30 am   BACKBONE|DICT|INTERRES
    61   29   99 1    
    62   30   31 2    
    63   30   32 1    
    64   32   33 1    
    65   32   34 1    
    66   32  100 1    
    67   33  101 1    
    68   33  102 1    
    69   33  103 1    
    70   34   35 am   BACKBONE|DICT|INTERRES
    71   34  104 1    
    72   35   36 2    
    73   37   38 2    
    74   37   39 am   BACKBONE|DICT|INTERRES
    75   39   40 1    
    76   39  105 1    
    77   40   41 1    
    78   40   42 1    
    79   40  106 1    
    80   41  107 1    
    81   41  108 1    
    82   41  109 1    
    83   42   43 2    
    84   42   44 am   BACKBONE|DICT|INTERRES
    85   44   45 1    
    86   44  110 1    
    87   45   46 1    
    88   45   47 1    
    89   45  111 1    
    90   46  112 1    
    91   46  113 1    
    92   46  114 1    
    93   47   48 2    
    94   47   49 am   BACKBONE|DICT|INTERRES
    95   49   50 1    
    96   49  115 1    
    97   50   51 1    
    98   50   52 1    
    99   50  116 1    
   100   51  117 1    
   101   51  118 1    
   102   51  119 1    
   103   52   53 2    
   104   52   54 am   BACKBONE|DICT|INTERRES
   105   54   55 1    
   106   54  120 1    
   107   55   56 1    
   108   55   57 1    
   109   55  121 1    
   110   56  122 1    
   111   56  123 1    
   112   56  124 1    
   113   57   58 2    
   114   57   59 am   BACKBONE|DICT|INTERRES
   115   59   60 1    
   116   59  125 1    
   117   60   61 1    
   118   60   62 1    
   119   60  126 1    
   120   61  127 1    
   121   61  128 1    
   122   61  129 1    
   123   62   63 2    
   124   62   64 am   BACKBONE|DICT|INTERRES
   125   64   65 1    
   126   64  130 1    
   127   65   66 1    
   128   65   69 1    
   129   65  131 1    
   130   66   67 am   BACKBONE|DICT|INTERRES
   131   66   68 2    
   132   67  132 1    
   133   67  133 1    
   134   69   70 1    
   135   69  134 1    
   136   69  135 1    
   137   70   71 1    
   138   71  136 1    
   139   71  137 1    
@<TRIPOS>SUBSTRUCTURE
     1 UNK         1 GROUP             0       ****    0 ROOT    
