@<TRIPOS>MOLECULE
3R136
137   139    1
SMALL
USER_CHARGES


@<TRIPOS>ATOM
      1 CA         27.6832   17.5162    2.7787 C.3       0 UNK        -0.1979 
      2 C          28.3415   18.5384    1.8634 C.2       0 UNK         0.4864 
      3 O          28.8025   18.1803    0.7780 O.2       0 UNK        -0.5359 
      4 N          28.3965   19.8039    2.2966 N.am      1 UNK        -0.4318 
      5 CA         28.9200   20.9342    1.5239 C.3       1 UNK         0.0824 
      6 C6         29.3524   22.1014    2.4473 C.3       12 UNK        -0.0944 
      7 S7         28.0206   22.7675    3.5093 S.3       12 UNK        -0.2672 
      8 C8         28.9557   23.2771    4.9891 C.3       12 UNK         0.0333 
      9 C9         30.0960   24.2298    4.6517 C.ar      12 UNK        -0.0807 
     10 C10        31.4185   23.8767    4.9450 C.ar      12 UNK        -0.0894 
     11 C11        32.4708   24.7369    4.6172 C.ar      12 UNK        -0.0804 
     12 C12        32.1908   25.9485    3.9822 C.ar      12 UNK        -0.0824 
     13 C13        30.8754   26.3244    3.7066 C.ar      12 UNK        -0.0762 
     14 C14        29.8292   25.4626    4.0456 C.ar      12 UNK        -0.0782 
     15 C15        30.5993   27.6749    3.0690 C.3       12 UNK         0.0230 
     16 S16        30.9383   27.6631    1.2818 S.3       12 UNK        -0.2608 
     17 C17        29.3678   27.0277    0.6058 C.3       12 UNK        -0.0989 
     18 CA         28.5215   28.1593   -0.0322 C.3       5 UNK         0.0716 
     19 N          27.6468   27.6442   -1.0878 N.am      5 UNK        -0.4135 
     20 C          27.0939   28.4033   -2.0469 C.2       4 UNK         0.5031 
     21 O          27.3154   29.6093   -2.1700 O.2       4 UNK        -0.5229 
     22 CA         26.1554   27.7217   -3.0629 C.3       4 UNK         0.0329 
     23 CB         26.8749   27.5251   -4.4078 C.3       4 UNK        -0.2001 
     24 N          25.6391   26.4299   -2.6106 N.am      4 UNK        -0.4303 
     25 C          24.7163   26.2600   -1.6538 C.2       3 UNK         0.5044 
     26 O          24.1118   27.1873   -1.1152 O.2       3 UNK        -0.5152 
     27 CA         24.4213   24.8122   -1.2140 C.3       3 UNK         0.0319 
     28 CB         23.0732   24.3417   -1.7849 C.3       3 UNK        -0.2001 
     29 N          25.4602   23.8382   -1.5767 N.am      3 UNK        -0.4354 
     30 C          26.7207   23.8451   -1.1214 C.2       2 UNK         0.4964 
     31 O          27.1817   24.7188   -0.3833 O.2       2 UNK        -0.5047 
     32 CA         27.6405   22.7269   -1.6363 C.3       2 UNK         0.0288 
     33 CB         28.5857   23.2715   -2.7205 C.3       2 UNK        -0.2113 
     34 N          28.4328   22.1448   -0.5524 N.am      2 UNK        -0.4145 
     35 C          27.9256   21.3889    0.4318 C.2       1 UNK         0.5006 
     36 O          26.7357   21.0620    0.4950 O.2       1 UNK        -0.5103 
     37 C          27.7079   28.9338    1.0265 C.2       5 UNK         0.5055 
     38 O          26.5414   28.6118    1.2672 O.2       5 UNK        -0.5220 
     39 N          28.3516   29.9169    1.6639 N.am      6 UNK        -0.4450 
     40 CA         27.8036   30.7207    2.7512 C.3       6 UNK         0.0367 
     41 CB         27.2111   32.0198    2.1781 C.3       6 UNK        -0.1929 
     42 C          28.9224   31.0297    3.7499 C.2       6 UNK         0.5070 
     43 O          30.1006   31.0070    3.3809 O.2       6 UNK        -0.5237 
     44 N          28.5379   31.3692    4.9866 N.am      7 UNK        -0.4739 
     45 CA         29.4473   31.7303    6.0834 C.3       7 UNK         0.0276 
     46 CB         28.6396   31.8695    7.3838 C.3       7 UNK        -0.1927 
     47 C          30.2775   33.0028    5.8260 C.2       7 UNK         0.5013 
     48 O          31.3304   33.1672    6.4411 O.2       7 UNK        -0.5193 
     49 N          29.8075   33.8617    4.9096 N.am      8 UNK        -0.4253 
     50 CA         30.5398   35.0214    4.3966 C.3       8 UNK         0.0242 
     51 CB         29.5806   35.9110    3.5890 C.3       8 UNK        -0.2000 
     52 C          31.7612   34.6302    3.5427 C.2       8 UNK         0.4948 
     53 O          32.7436   35.3730    3.5321 O.2       8 UNK        -0.5275 
     54 N          31.6845   33.4817    2.8535 N.am      9 UNK        -0.4246 
     55 CA         32.7990   32.8861    2.1160 C.3       9 UNK         0.0261 
     56 CB         32.2657   32.0897    0.9120 C.3       9 UNK        -0.1959 
     57 C          33.6382   31.9906    3.0394 C.2       9 UNK         0.5033 
     58 O          34.8652   32.1049    3.0331 O.2       9 UNK        -0.5390 
     59 N          32.9539   31.1413    3.8240 N.am      10 UNK        -0.4215 
     60 CA         33.5020   30.1584    4.7682 C.3       10 UNK         0.0240 
     61 CB         34.2598   30.8646    5.9152 C.3       10 UNK        -0.1982 
     62 C          34.3408   29.0623    4.0760 C.2       10 UNK         0.4970 
     63 O          34.2832   28.9155    2.8533 O.2       10 UNK        -0.4916 
     64 N          35.0656   28.2689    4.8751 N.am      11 UNK        -0.4279 
     65 CA         35.9048   27.1525    4.4024 C.3       11 UNK         0.1003 
     66 C          37.2622   27.5817    3.7703 C.2       11 UNK         0.5709 
     67 N          37.6444   28.8530    3.8014 N.am      11 UNK        -0.7358 
     68 O          37.9807   26.7425    3.2321 O.2       11 UNK        -0.4999 
     69 C69        36.1140   26.0680    5.4964 C.3       12 UNK        -0.0954 
     70 S70        34.5667   25.4644    6.2543 S.3       12 UNK        -0.2268 
     71 C71        33.9103   24.3732    4.9505 C.3       12 UNK         0.0203 
     72 H72        27.3350   17.9663    3.7083 H         1 UNK         0.0888 
     73 H73        28.3902   16.7256    3.0289 H         1 UNK         0.0888 
     74 H74        26.8267   17.0633    2.2800 H         1 UNK         0.0888 
     75 H75        27.9674   20.0518    3.1768 H         1 UNK         0.3017 
     76 H76        29.8160   20.5865    1.0041 H         1 UNK         0.0873 
     77 H77        29.7699   22.9254    1.8653 H         1 UNK         0.0745 
     78 H78        30.1675   21.7567    3.0857 H         1 UNK         0.0745 
     79 H79        28.2756   23.7654    5.6882 H         1 UNK         0.0705 
     80 H80        29.3287   22.3847    5.4942 H         1 UNK         0.0705 
     81 H81        31.6295   22.9318    5.4271 H         1 UNK         0.1334 
     82 H82        32.9995   26.6098    3.7127 H         1 UNK         0.1417 
     83 H83        28.8066   25.7411    3.8295 H         1 UNK         0.1562 
     84 H84        31.2336   28.4293    3.5349 H         1 UNK         0.0748 
     85 H85        29.5726   27.9864    3.2613 H         1 UNK         0.0748 
     86 H86        28.8068   26.4718    1.3599 H         1 UNK         0.0940 
     87 H87        29.6376   26.2910   -0.1530 H         1 UNK         0.0940 
     88 H88        29.2024   28.8664   -0.5126 H         1 UNK         0.0703 
     89 H89        27.3769   26.6702   -1.0042 H         1 UNK         0.3081 
     90 H90        25.3077   28.3915   -3.2231 H         1 UNK         0.0719 
     91 H91        27.7313   26.8559   -4.3146 H         1 UNK         0.0809 
     92 H92        26.2039   27.1114   -5.1610 H         1 UNK         0.0809 
     93 H93        27.2453   28.4755   -4.7951 H         1 UNK         0.0809 
     94 H94        26.0634   25.6054   -3.0088 H         1 UNK         0.2990 
     95 H95        24.3468   24.8203   -0.1245 H         1 UNK         0.0690 
     96 H96        22.8021   23.3567   -1.4044 H         1 UNK         0.0788 
     97 H97        23.0922   24.2895   -2.8743 H         1 UNK         0.0788 
     98 H98        22.2701   25.0254   -1.5058 H         1 UNK         0.0788 
     99 H99        25.1733   23.0923   -2.1950 H         1 UNK         0.2993 
    100 H100       27.0306   21.9330   -2.0738 H         1 UNK         0.0949 
    101 H101       28.0236   23.6832   -3.5599 H         1 UNK         0.0767 
    102 H102       29.2270   24.0664   -2.3365 H         1 UNK         0.0767 
    103 H103       29.2279   22.4854   -3.1186 H         1 UNK         0.0767 
    104 H104       29.4086   22.4011   -0.5213 H         1 UNK         0.3013 
    105 H105       29.3371   30.0693    1.4874 H         1 UNK         0.3121 
    106 H106       27.0257   30.1600    3.2743 H         1 UNK         0.0774 
    107 H107       26.4156   31.8078    1.4633 H         1 UNK         0.0815 
    108 H108       27.9671   32.6171    1.6666 H         1 UNK         0.0815 
    109 H109       26.7789   32.6393    2.9648 H         1 UNK         0.0815 
    110 H110       27.5506   31.3749    5.2032 H         1 UNK         0.2987 
    111 H111       30.1574   30.9094    6.2073 H         1 UNK         0.0949 
    112 H112       27.8940   32.6626    7.3139 H         1 UNK         0.0806 
    113 H113       28.1233   30.9421    7.6327 H         1 UNK         0.0806 
    114 H114       29.2918   32.1093    8.2251 H         1 UNK         0.0806 
    115 H115       28.9161   33.6567    4.4834 H         1 UNK         0.3010 
    116 H116       30.9049   35.5959    5.2508 H         1 UNK         0.0829 
    117 H117       28.7486   36.2575    4.2024 H         1 UNK         0.0813 
    118 H118       30.0947   36.7971    3.2137 H         1 UNK         0.0813 
    119 H119       29.1678   35.3848    2.7272 H         1 UNK         0.0813 
    120 H120       30.8594   32.9044    2.9593 H         1 UNK         0.3038 
    121 H121       33.4454   33.6784    1.7316 H         1 UNK         0.0769 
    122 H122       31.6327   31.2559    1.2161 H         1 UNK         0.0811 
    123 H123       33.0891   31.6723    0.3308 H         1 UNK         0.0811 
    124 H124       31.6854   32.7247    0.2425 H         1 UNK         0.0811 
    125 H125       31.9454   31.0993    3.6934 H         1 UNK         0.3204 
    126 H126       32.6380   29.6539    5.2029 H         1 UNK         0.0748 
    127 H127       33.6714   31.6840    6.3285 H         1 UNK         0.0771 
    128 H128       34.4690   30.1822    6.7393 H         1 UNK         0.0771 
    129 H129       35.2117   31.2783    5.5806 H         1 UNK         0.0771 
    130 H130       35.0610   28.4280    5.8714 H         1 UNK         0.2980 
    131 H131       35.3655   26.6704    3.5859 H         1 UNK         0.0545 
    132 H132       37.0551   29.5549    4.2189 H         1 UNK         0.3459 
    133 H133       38.5234   29.1139    3.3834 H         1 UNK         0.3459 
    134 H134       36.6512   25.2082    5.0913 H         1 UNK         0.0616 
    135 H135       36.7400   26.4632    6.2983 H         1 UNK         0.0616 
    136 H136       34.5158   24.4430    4.0462 H         1 UNK         0.0634 
    137 H137       33.9831   23.3385    5.2888 H         1 UNK         0.0634 
@<TRIPOS>BOND
     1    1    2 1    
     2    1   72 1    
     3    1   73 1    
     4    1   74 1    
     5    2    3 2    
     6    2    4 am   BACKBONE|DICT|INTERRES
     7    4    5 1    
     8    4   75 1    
     9    5    6 1    
    10    5   35 1    
    11    5   76 1    
    12    6    7 1    
    13    6   77 1    
    14    6   78 1    
    15    7    8 1    
    16    8    9 1    
    17    8   79 1    
    18    8   80 1    
    19    9   10 ar   
    20    9   14 ar   
    21   10   11 ar   
    22   10   81 1    
    23   11   12 ar   
    24   11   71 1    
    25   12   13 ar   
    26   12   82 1    
    27   13   14 ar   
    28   13   15 1    
    29   14   83 1    
    30   15   16 1    
    31   15   84 1    
    32   15   85 1    
    33   16   17 1    
    34   17   18 1    
    35   17   86 1    
    36   17   87 1    
    37   18   19 1    
    38   18   37 1    
    39   18   88 1    
    40   19   20 am   BACKBONE|DICT|INTERRES
    41   19   89 1    
    42   20   21 2    
    43   20   22 1    
    44   22   23 1    
    45   22   24 1    
    46   22   90 1    
    47   23   91 1    
    48   23   92 1    
    49   23   93 1    
    50   24   25 am   BACKBONE|DICT|INTERRES
    51   24   94 1    
    52   25   26 2    
    53   25   27 1    
    54   27   28 1    
    55   27   29 1    
    56   27   95 1    
    57   28   96 1    
    58   28   97 1    
    59   28   98 1    
    60   29   30 am   BACKBONE|DICT|INTERRES
    61   29   99 1    
    62   30   31 2    
    63   30   32 1    
    64   32   33 1    
    65   32   34 1    
    66   32  100 1    
    67   33  101 1    
    68   33  102 1    
    69   33  103 1    
    70   34   35 am   BACKBONE|DICT|INTERRES
    71   34  104 1    
    72   35   36 2    
    73   37   38 2    
    74   37   39 am   BACKBONE|DICT|INTERRES
    75   39   40 1    
    76   39  105 1    
    77   40   41 1    
    78   40   42 1    
    79   40  106 1    
    80   41  107 1    
    81   41  108 1    
    82   41  109 1    
    83   42   43 2    
    84   42   44 am   BACKBONE|DICT|INTERRES
    85   44   45 1    
    86   44  110 1    
    87   45   46 1    
    88   45   47 1    
    89   45  111 1    
    90   46  112 1    
    91   46  113 1    
    92   46  114 1    
    93   47   48 2    
    94   47   49 am   BACKBONE|DICT|INTERRES
    95   49   50 1    
    96   49  115 1    
    97   50   51 1    
    98   50   52 1    
    99   50  116 1    
   100   51  117 1    
   101   51  118 1    
   102   51  119 1    
   103   52   53 2    
   104   52   54 am   BACKBONE|DICT|INTERRES
   105   54   55 1    
   106   54  120 1    
   107   55   56 1    
   108   55   57 1    
   109   55  121 1    
   110   56  122 1    
   111   56  123 1    
   112   56  124 1    
   113   57   58 2    
   114   57   59 am   BACKBONE|DICT|INTERRES
   115   59   60 1    
   116   59  125 1    
   117   60   61 1    
   118   60   62 1    
   119   60  126 1    
   120   61  127 1    
   121   61  128 1    
   122   61  129 1    
   123   62   63 2    
   124   62   64 am   BACKBONE|DICT|INTERRES
   125   64   65 1    
   126   64  130 1    
   127   65   66 1    
   128   65   69 1    
   129   65  131 1    
   130   66   67 am   BACKBONE|DICT|INTERRES
   131   66   68 2    
   132   67  132 1    
   133   67  133 1    
   134   69   70 1    
   135   69  134 1    
   136   69  135 1    
   137   70   71 1    
   138   71  136 1    
   139   71  137 1    
@<TRIPOS>SUBSTRUCTURE
     1 UNK         1 GROUP             0       ****    0 ROOT    
