@<TRIPOS>MOLECULE
3R136
137   139    1
SMALL
USER_CHARGES


@<TRIPOS>ATOM
      1 CA         32.0630   23.6799   -1.4373 C.3       0 UNK        -0.1979 
      2 C          30.9034   23.6477   -0.4548 C.2       0 UNK         0.4864 
      3 O          30.3402   24.6973   -0.1392 O.2       0 UNK        -0.5359 
      4 N          30.5231   22.4533    0.0196 N.am      1 UNK        -0.4318 
      5 CA         29.4998   22.2055    1.0500 C.3       1 UNK         0.0824 
      6 C6         29.6682   20.8104    1.7195 C.3       12 UNK        -0.0944 
      7 S7         31.3917   20.3914    2.1678 S.3       12 UNK        -0.2672 
      8 C8         31.5256   21.0083    3.8786 C.3       12 UNK         0.0333 
      9 C9         31.3926   22.5234    3.9666 C.ar      12 UNK        -0.0807 
     10 C10        32.2272   23.3553    3.2119 C.ar      12 UNK        -0.0894 
     11 C11        32.0764   24.7438    3.2575 C.ar      12 UNK        -0.0804 
     12 C12        31.1050   25.3045    4.0890 C.ar      12 UNK        -0.0824 
     13 C13        30.2725   24.4840    4.8560 C.ar      12 UNK        -0.0762 
     14 C14        30.4221   23.0956    4.7943 C.ar      12 UNK        -0.0782 
     15 C15        29.1863   25.0980    5.7248 C.3       12 UNK         0.0230 
     16 S16        27.5205   24.8627    5.0179 S.3       12 UNK        -0.2608 
     17 C17        27.7096   25.4407    3.2951 C.3       12 UNK        -0.0989 
     18 CA         27.9913   26.9591    3.1590 C.3       5 UNK         0.0716 
     19 N          28.6262   27.2547    1.8714 N.am      5 UNK        -0.4135 
     20 C          29.5922   28.1590    1.6518 C.2       4 UNK         0.5031 
     21 O          30.1608   28.7963    2.5396 O.2       4 UNK        -0.5229 
     22 CA         29.9980   28.4234    0.1871 C.3       4 UNK         0.0329 
     23 CB         31.4317   27.9524   -0.1075 C.3       4 UNK        -0.2001 
     24 N          29.0736   27.8489   -0.7956 N.am      4 UNK        -0.4303 
     25 C          27.8849   28.3923   -1.0943 C.2       3 UNK         0.5044 
     26 O          27.4602   29.4214   -0.5691 O.2       3 UNK        -0.5152 
     27 CA         26.9930   27.6337   -2.0944 C.3       3 UNK         0.0319 
     28 CB         27.4026   27.9631   -3.5384 C.3       3 UNK        -0.2001 
     29 N          26.9680   26.1763   -1.9109 N.am      3 UNK        -0.4354 
     30 C          26.6442   25.5432   -0.7742 C.2       2 UNK         0.4964 
     31 O          26.4095   26.1282    0.2817 O.2       2 UNK        -0.5047 
     32 CA         26.6192   24.0112   -0.7871 C.3       2 UNK         0.0288 
     33 CB         26.4802   23.3866   -2.1916 C.3       2 UNK        -0.2113 
     34 N          27.8530   23.5621   -0.1605 N.am      2 UNK        -0.4145 
     35 C          28.0540   22.4426    0.5387 C.2       1 UNK         0.5006 
     36 O          27.1666   21.6171    0.7643 O.2       1 UNK        -0.5103 
     37 C          26.7103   27.7987    3.3571 C.2       5 UNK         0.5055 
     38 O          26.3603   28.1057    4.4977 O.2       5 UNK        -0.5220 
     39 N          26.0362   28.1700    2.2565 N.am      6 UNK        -0.4450 
     40 CA         24.9566   29.1610    2.2357 C.3       6 UNK         0.0367 
     41 CB         24.2156   29.0955    0.8907 C.3       6 UNK        -0.1929 
     42 C          25.4908   30.5791    2.5087 C.2       6 UNK         0.5070 
     43 O          24.8421   31.3487    3.2189 O.2       6 UNK        -0.5237 
     44 N          26.6843   30.8789    1.9766 N.am      7 UNK        -0.4739 
     45 CA         27.5211   32.0126    2.3767 C.3       7 UNK         0.0276 
     46 CB         28.6247   32.2005    1.3231 C.3       7 UNK        -0.1927 
     47 C          28.1374   31.7874    3.7725 C.2       7 UNK         0.5013 
     48 O          28.0985   30.6735    4.2979 O.2       7 UNK        -0.5193 
     49 N          28.7278   32.8397    4.3520 N.am      8 UNK        -0.4253 
     50 CA         29.3419   32.8326    5.6864 C.3       8 UNK         0.0242 
     51 CB         29.4735   34.2882    6.1751 C.3       8 UNK        -0.2000 
     52 C          30.6819   32.0629    5.7448 C.2       8 UNK         0.4948 
     53 O          31.7108   32.6582    6.0700 O.2       8 UNK        -0.5275 
     54 N          30.6372   30.7590    5.4274 N.am      9 UNK        -0.4246 
     55 CA         31.7454   29.7949    5.3778 C.3       9 UNK         0.0261 
     56 CB         32.2613   29.4831    6.7979 C.3       9 UNK        -0.1959 
     57 C          32.8591   30.2575    4.4213 C.2       9 UNK         0.5033 
     58 O          34.0145   30.4031    4.8278 O.2       9 UNK        -0.5390 
     59 N          32.4777   30.5111    3.1618 N.am      10 UNK        -0.4215 
     60 CA         33.3181   31.1660    2.1510 C.3       10 UNK         0.0240 
     61 CB         32.4591   31.5703    0.9423 C.3       10 UNK        -0.1982 
     62 C          34.5623   30.3683    1.7157 C.2       10 UNK         0.4970 
     63 O          35.4703   30.9608    1.1312 O.2       10 UNK        -0.4916 
     64 N          34.6028   29.0648    2.0206 N.am      11 UNK        -0.4279 
     65 CA         35.7996   28.2224    1.8883 C.3       11 UNK         0.1003 
     66 C          36.8834   28.4608    2.9834 C.2       11 UNK         0.5709 
     67 N          36.6109   29.2033    4.0517 N.am      11 UNK        -0.7358 
     68 O          38.0040   27.9745    2.8494 O.2       11 UNK        -0.4999 
     69 C69        35.4366   26.7231    1.7285 C.3       12 UNK        -0.0954 
     70 S70        34.5312   26.0071    3.1459 S.3       12 UNK        -0.2268 
     71 C71        32.9323   25.6324    2.3733 C.3       12 UNK         0.0203 
     72 H72        32.4850   22.6887   -1.6020 H         1 UNK         0.0888 
     73 H73        31.7292   24.0729   -2.3970 H         1 UNK         0.0888 
     74 H74        32.8540   24.3274   -1.0603 H         1 UNK         0.0888 
     75 H75        31.0126   21.6262   -0.2908 H         1 UNK         0.3017 
     76 H76        29.6543   22.9531    1.8293 H         1 UNK         0.0873 
     77 H77        29.0427   20.7393    2.6113 H         1 UNK         0.0745 
     78 H78        29.3203   20.0259    1.0447 H         1 UNK         0.0745 
     79 H79        30.7756   20.5099    4.4947 H         1 UNK         0.0705 
     80 H80        32.4971   20.7184    4.2810 H         1 UNK         0.0705 
     81 H81        32.9754   22.9188    2.5644 H         1 UNK         0.1334 
     82 H82        30.9832   26.3786    4.1190 H         1 UNK         0.1417 
     83 H83        29.7662   22.4636    5.3779 H         1 UNK         0.1562 
     84 H84        29.3683   26.1621    5.8813 H         1 UNK         0.0748 
     85 H85        29.2148   24.6417    6.7153 H         1 UNK         0.0748 
     86 H86        26.8145   25.1566    2.7385 H         1 UNK         0.0940 
     87 H87        28.5164   24.8673    2.8381 H         1 UNK         0.0940 
     88 H88        28.6836   27.2600    3.9461 H         1 UNK         0.0703 
     89 H89        28.2140   26.7930    1.0709 H         1 UNK         0.3081 
     90 H90        29.9876   29.5065    0.0569 H         1 UNK         0.0719 
     91 H91        31.5283   26.8708   -0.0589 H         1 UNK         0.0809 
     92 H92        31.7544   28.2697   -1.0990 H         1 UNK         0.0809 
     93 H93        32.1391   28.3699    0.6081 H         1 UNK         0.0809 
     94 H94        29.3502   26.9823   -1.2370 H         1 UNK         0.2990 
     95 H95        25.9716   27.9902   -1.9455 H         1 UNK         0.0690 
     96 H96        26.7047   27.5332   -4.2572 H         1 UNK         0.0788 
     97 H97        28.3999   27.5883   -3.7723 H         1 UNK         0.0788 
     98 H98        27.4119   29.0413   -3.7054 H         1 UNK         0.0788 
     99 H99        27.1611   25.6150   -2.7280 H         1 UNK         0.2993 
    100 H100       25.7680   23.7012   -0.1769 H         1 UNK         0.0949 
    101 H101       26.3592   22.3052   -2.1235 H         1 UNK         0.0767 
    102 H102       25.6018   23.7729   -2.7108 H         1 UNK         0.0767 
    103 H103       27.3534   23.5767   -2.8168 H         1 UNK         0.0767 
    104 H104       28.6597   24.1800   -0.2555 H         1 UNK         0.3013 
    105 H105       26.3058   27.7669    1.3659 H         1 UNK         0.3121 
    106 H106       24.2487   28.9097    3.0285 H         1 UNK         0.0774 
    107 H107       24.8626   29.3641    0.0557 H         1 UNK         0.0815 
    108 H108       23.3704   29.7849    0.8807 H         1 UNK         0.0815 
    109 H109       23.8227   28.0963    0.7020 H         1 UNK         0.0815 
    110 H110       27.1100   30.2010    1.3554 H         1 UNK         0.2987 
    111 H111       26.8991   32.9097    2.4112 H         1 UNK         0.0949 
    112 H112       29.3174   31.3596    1.3195 H         1 UNK         0.0806 
    113 H113       28.2071   32.2936    0.3201 H         1 UNK         0.0806 
    114 H114       29.2068   33.1024    1.5149 H         1 UNK         0.0806 
    115 H115       28.7592   33.7159    3.8507 H         1 UNK         0.3010 
    116 H116       28.6599   32.3218    6.3701 H         1 UNK         0.0829 
    117 H117       30.1328   34.8725    5.5320 H         1 UNK         0.0813 
    118 H118       28.5045   34.7868    6.2058 H         1 UNK         0.0813 
    119 H119       29.8851   34.3263    7.1847 H         1 UNK         0.0813 
    120 H120       29.7354   30.4139    5.0993 H         1 UNK         0.3038 
    121 H121       31.3395   28.8704    4.9650 H         1 UNK         0.0769 
    122 H122       33.0321   28.7118    6.7709 H         1 UNK         0.0811 
    123 H123       32.6980   30.3624    7.2728 H         1 UNK         0.0811 
    124 H124       31.4595   29.1184    7.4396 H         1 UNK         0.0811 
    125 H125       31.5289   30.2624    2.8969 H         1 UNK         0.3204 
    126 H126       33.6943   32.0857    2.6043 H         1 UNK         0.0748 
    127 H127       33.0587   32.0880    0.1922 H         1 UNK         0.0771 
    128 H128       32.0069   30.7094    0.4550 H         1 UNK         0.0771 
    129 H129       31.6612   32.2514    1.2366 H         1 UNK         0.0771 
    130 H130       33.8340   28.6631    2.5343 H         1 UNK         0.2980 
    131 H131       36.2848   28.5105    0.9537 H         1 UNK         0.0545 
    132 H132       35.6902   29.6069    4.1964 H         1 UNK         0.3459 
    133 H133       37.3302   29.3481    4.7415 H         1 UNK         0.3459 
    134 H134       34.8491   26.5945    0.8184 H         1 UNK         0.0616 
    135 H135       36.3389   26.1293    1.5716 H         1 UNK         0.0616 
    136 H136       33.0893   25.1424    1.4115 H         1 UNK         0.0634 
    137 H137       32.4126   26.5677    2.1692 H         1 UNK         0.0634 
@<TRIPOS>BOND
     1    1    2 1    
     2    1   72 1    
     3    1   73 1    
     4    1   74 1    
     5    2    3 2    
     6    2    4 am   BACKBONE|DICT|INTERRES
     7    4    5 1    
     8    4   75 1    
     9    5    6 1    
    10    5   35 1    
    11    5   76 1    
    12    6    7 1    
    13    6   77 1    
    14    6   78 1    
    15    7    8 1    
    16    8    9 1    
    17    8   79 1    
    18    8   80 1    
    19    9   10 ar   
    20    9   14 ar   
    21   10   11 ar   
    22   10   81 1    
    23   11   12 ar   
    24   11   71 1    
    25   12   13 ar   
    26   12   82 1    
    27   13   14 ar   
    28   13   15 1    
    29   14   83 1    
    30   15   16 1    
    31   15   84 1    
    32   15   85 1    
    33   16   17 1    
    34   17   18 1    
    35   17   86 1    
    36   17   87 1    
    37   18   19 1    
    38   18   37 1    
    39   18   88 1    
    40   19   20 am   BACKBONE|DICT|INTERRES
    41   19   89 1    
    42   20   21 2    
    43   20   22 1    
    44   22   23 1    
    45   22   24 1    
    46   22   90 1    
    47   23   91 1    
    48   23   92 1    
    49   23   93 1    
    50   24   25 am   BACKBONE|DICT|INTERRES
    51   24   94 1    
    52   25   26 2    
    53   25   27 1    
    54   27   28 1    
    55   27   29 1    
    56   27   95 1    
    57   28   96 1    
    58   28   97 1    
    59   28   98 1    
    60   29   30 am   BACKBONE|DICT|INTERRES
    61   29   99 1    
    62   30   31 2    
    63   30   32 1    
    64   32   33 1    
    65   32   34 1    
    66   32  100 1    
    67   33  101 1    
    68   33  102 1    
    69   33  103 1    
    70   34   35 am   BACKBONE|DICT|INTERRES
    71   34  104 1    
    72   35   36 2    
    73   37   38 2    
    74   37   39 am   BACKBONE|DICT|INTERRES
    75   39   40 1    
    76   39  105 1    
    77   40   41 1    
    78   40   42 1    
    79   40  106 1    
    80   41  107 1    
    81   41  108 1    
    82   41  109 1    
    83   42   43 2    
    84   42   44 am   BACKBONE|DICT|INTERRES
    85   44   45 1    
    86   44  110 1    
    87   45   46 1    
    88   45   47 1    
    89   45  111 1    
    90   46  112 1    
    91   46  113 1    
    92   46  114 1    
    93   47   48 2    
    94   47   49 am   BACKBONE|DICT|INTERRES
    95   49   50 1    
    96   49  115 1    
    97   50   51 1    
    98   50   52 1    
    99   50  116 1    
   100   51  117 1    
   101   51  118 1    
   102   51  119 1    
   103   52   53 2    
   104   52   54 am   BACKBONE|DICT|INTERRES
   105   54   55 1    
   106   54  120 1    
   107   55   56 1    
   108   55   57 1    
   109   55  121 1    
   110   56  122 1    
   111   56  123 1    
   112   56  124 1    
   113   57   58 2    
   114   57   59 am   BACKBONE|DICT|INTERRES
   115   59   60 1    
   116   59  125 1    
   117   60   61 1    
   118   60   62 1    
   119   60  126 1    
   120   61  127 1    
   121   61  128 1    
   122   61  129 1    
   123   62   63 2    
   124   62   64 am   BACKBONE|DICT|INTERRES
   125   64   65 1    
   126   64  130 1    
   127   65   66 1    
   128   65   69 1    
   129   65  131 1    
   130   66   67 am   BACKBONE|DICT|INTERRES
   131   66   68 2    
   132   67  132 1    
   133   67  133 1    
   134   69   70 1    
   135   69  134 1    
   136   69  135 1    
   137   70   71 1    
   138   71  136 1    
   139   71  137 1    
@<TRIPOS>SUBSTRUCTURE
     1 UNK         1 GROUP             0       ****    0 ROOT    
