@<TRIPOS>MOLECULE
3R136
137   139    1
SMALL
USER_CHARGES


@<TRIPOS>ATOM
      1 CA         32.8788   27.6299    1.9972 C.3       0 UNK        -0.1979 
      2 C          31.7653   26.7921    1.3913 C.2       0 UNK         0.4864 
      3 O          30.5898   27.0389    1.6724 O.2       0 UNK        -0.5359 
      4 N          32.1274   25.8233    0.5388 N.am      1 UNK        -0.4318 
      5 CA         31.2522   24.8334   -0.1102 C.3       1 UNK         0.0824 
      6 C6         32.0555   23.6134   -0.6445 C.3       12 UNK        -0.0944 
      7 S7         33.2948   22.9445    0.5170 S.3       12 UNK        -0.2672 
      8 C8         32.3541   21.6477    1.3825 C.3       12 UNK         0.0333 
      9 C9         31.4329   22.2070    2.4599 C.ar      12 UNK        -0.0807 
     10 C10        31.9481   23.0172    3.4776 C.ar      12 UNK        -0.0894 
     11 C11        31.1219   23.4847    4.5028 C.ar      12 UNK        -0.0804 
     12 C12        29.7698   23.1323    4.5115 C.ar      12 UNK        -0.0824 
     13 C13        29.2410   22.3232    3.5008 C.ar      12 UNK        -0.0762 
     14 C14        30.0759   21.8684    2.4746 C.ar      12 UNK        -0.0782 
     15 C15        27.7797   21.8983    3.5407 C.3       12 UNK         0.0230 
     16 S16        26.7527   22.8406    2.3717 S.3       12 UNK        -0.2608 
     17 C17        26.5899   24.4476    3.2230 C.3       12 UNK        -0.0989 
     18 CA         26.5846   25.6333    2.2219 C.3       5 UNK         0.0716 
     19 N          25.4988   25.5550    1.2349 N.am      5 UNK        -0.4135 
     20 C          24.1801   25.6584    1.4717 C.2       4 UNK         0.5031 
     21 O          23.7005   25.8270    2.5943 O.2       4 UNK        -0.5229 
     22 CA         23.2235   25.5309    0.2633 C.3       4 UNK         0.0329 
     23 CB         21.9506   26.3906    0.4256 C.3       4 UNK        -0.2001 
     24 N          23.8569   25.7730   -1.0404 N.am      4 UNK        -0.4303 
     25 C          24.4203   26.9121   -1.4660 C.2       3 UNK         0.5044 
     26 O          24.4374   27.9662   -0.8277 O.2       3 UNK        -0.5152 
     27 CA         25.1550   26.8355   -2.8162 C.3       3 UNK         0.0319 
     28 CB         24.4656   27.7240   -3.8642 C.3       3 UNK        -0.2001 
     29 N          26.5613   27.2317   -2.6891 N.am      3 UNK        -0.4354 
     30 C          27.4423   26.6875   -1.8372 C.2       2 UNK         0.4964 
     31 O          27.1766   25.7390   -1.0935 O.2       2 UNK        -0.5047 
     32 CA         28.8324   27.3442   -1.7885 C.3       2 UNK         0.0288 
     33 CB         28.7509   28.7849   -1.2546 C.3       2 UNK        -0.2113 
     34 N          29.7541   26.6042   -0.9303 N.am      2 UNK        -0.4145 
     35 C          30.3548   25.4460   -1.2182 C.2       1 UNK         0.5006 
     36 O          30.2416   24.8844   -2.3109 O.2       1 UNK        -0.5103 
     37 C          26.6092   27.0132    2.9137 C.2       5 UNK         0.5055 
     38 O          26.6366   27.0954    4.1431 O.2       5 UNK        -0.5220 
     39 N          26.5720   28.0783    2.0987 N.am      6 UNK        -0.4450 
     40 CA         26.4823   29.4765    2.5342 C.3       6 UNK         0.0367 
     41 CB         26.1114   30.3566    1.3278 C.3       6 UNK        -0.1929 
     42 C          27.7299   30.0325    3.2522 C.2       6 UNK         0.5070 
     43 O          27.6510   31.1444    3.7758 O.2       6 UNK        -0.5237 
     44 N          28.8422   29.2796    3.2691 N.am      7 UNK        -0.4739 
     45 CA         30.1183   29.6072    3.9197 C.3       7 UNK         0.0276 
     46 CB         29.9564   29.6978    5.4525 C.3       7 UNK        -0.1927 
     47 C          30.7925   30.8482    3.3065 C.2       7 UNK         0.5013 
     48 O          31.2545   31.7303    4.0347 O.2       7 UNK        -0.5193 
     49 N          30.8307   30.8947    1.9667 N.am      8 UNK        -0.4253 
     50 CA         31.4708   31.9499    1.1774 C.3       8 UNK         0.0242 
     51 CB         31.2096   31.6990   -0.3170 C.3       8 UNK        -0.2000 
     52 C          32.9789   32.0270    1.4728 C.2       8 UNK         0.4948 
     53 O          33.6955   31.0644    1.1961 O.2       8 UNK        -0.5275 
     54 N          33.4094   33.1526    2.0608 N.am      9 UNK        -0.4246 
     55 CA         34.7532   33.4077    2.6009 C.3       9 UNK         0.0261 
     56 CB         35.8228   33.3920    1.4862 C.3       9 UNK        -0.1959 
     57 C          35.1137   32.5032    3.8021 C.2       9 UNK         0.5033 
     58 O          36.2946   32.2164    4.0090 O.2       9 UNK        -0.5390 
     59 N          34.0898   32.1175    4.5818 N.am      10 UNK        -0.4215 
     60 CA         34.0887   31.2525    5.7682 C.3       10 UNK         0.0240 
     61 CB         35.1203   31.7005    6.8246 C.3       10 UNK        -0.1982 
     62 C          34.2324   29.7593    5.4278 C.2       10 UNK         0.4970 
     63 O          34.8488   29.3925    4.4265 O.2       10 UNK        -0.4916 
     64 N          33.6515   28.9221    6.2949 N.am      11 UNK        -0.4279 
     65 CA         33.6753   27.4530    6.2013 C.3       11 UNK         0.1003 
     66 C          34.9156   26.7914    6.8714 C.2       11 UNK         0.5709 
     67 N          35.8098   27.5384    7.5088 N.am      11 UNK        -0.7358 
     68 O          35.0774   25.5757    6.8002 O.2       11 UNK        -0.4999 
     69 C69        32.3292   26.8409    6.6984 C.3       12 UNK        -0.0954 
     70 S70        31.3664   26.1059    5.3367 S.3       12 UNK        -0.2268 
     71 C71        31.6977   24.3423    5.6178 C.3       12 UNK         0.0203 
     72 H72        32.7905   28.6627    1.6667 H         1 UNK         0.0888 
     73 H73        32.8131   27.6145    3.0828 H         1 UNK         0.0888 
     74 H74        33.8669   27.2672    1.7150 H         1 UNK         0.0888 
     75 H75        33.1101   25.6928    0.3456 H         1 UNK         0.3017 
     76 H76        30.5703   24.4622    0.6582 H         1 UNK         0.0873 
     77 H77        31.3761   22.8120   -0.9407 H         1 UNK         0.0745 
     78 H78        32.6011   23.8905   -1.5489 H         1 UNK         0.0745 
     79 H79        33.0623   20.9672    1.8570 H         1 UNK         0.0705 
     80 H80        31.8007   21.0517    0.6553 H         1 UNK         0.0705 
     81 H81        32.9984   23.2754    3.4754 H         1 UNK         0.1334 
     82 H82        29.1337   23.4819    5.3133 H         1 UNK         0.1417 
     83 H83        29.6688   21.2323    1.7001 H         1 UNK         0.1562 
     84 H84        27.3711   21.9994    4.5475 H         1 UNK         0.0748 
     85 H85        27.7075   20.8385    3.2920 H         1 UNK         0.0748 
     86 H86        27.4146   24.5626    3.9271 H         1 UNK         0.0940 
     87 H87        25.6791   24.4373    3.8240 H         1 UNK         0.0940 
     88 H88        27.5150   25.5780    1.6535 H         1 UNK         0.0703 
     89 H89        25.8154   25.4370    0.2769 H         1 UNK         0.3081 
     90 H90        22.9096   24.4861    0.2502 H         1 UNK         0.0719 
     91 H91        22.1875   27.4495    0.5331 H         1 UNK         0.0809 
     92 H92        21.2845   26.2803   -0.4300 H         1 UNK         0.0809 
     93 H93        21.3873   26.0944    1.3113 H         1 UNK         0.0809 
     94 H94        23.9270   24.9613   -1.6395 H         1 UNK         0.2990 
     95 H95        25.1368   25.8046   -3.1759 H         1 UNK         0.0690 
     96 H96        24.9441   27.6343   -4.8397 H         1 UNK         0.0788 
     97 H97        24.4833   28.7759   -3.5756 H         1 UNK         0.0788 
     98 H98        23.4201   27.4387   -3.9899 H         1 UNK         0.0788 
     99 H99        26.8525   28.0233   -3.2439 H         1 UNK         0.2993 
    100 H100       29.2335   27.3591   -2.8042 H         1 UNK         0.0949 
    101 H101       29.7229   29.2736   -1.3128 H         1 UNK         0.0767 
    102 H102       28.0526   29.3955   -1.8282 H         1 UNK         0.0767 
    103 H103       28.4316   28.8054   -0.2130 H         1 UNK         0.0767 
    104 H104       29.8941   26.9564    0.0144 H         1 UNK         0.3013 
    105 H105       26.4991   27.9137    1.1046 H         1 UNK         0.3121 
    106 H106       25.6618   29.5364    3.2524 H         1 UNK         0.0774 
    107 H107       25.9453   31.3899    1.6356 H         1 UNK         0.0815 
    108 H108       26.8967   30.3694    0.5731 H         1 UNK         0.0815 
    109 H109       25.1918   30.0147    0.8526 H         1 UNK         0.0815 
    110 H110       28.8176   28.3837    2.7994 H         1 UNK         0.2987 
    111 H111       30.7872   28.7702    3.7226 H         1 UNK         0.0949 
    112 H112       29.3366   30.5439    5.7496 H         1 UNK         0.0806 
    113 H113       29.5050   28.7911    5.8555 H         1 UNK         0.0806 
    114 H114       30.9232   29.8209    5.9393 H         1 UNK         0.0806 
    115 H115       30.4331   30.1215    1.4547 H         1 UNK         0.3010 
    116 H116       31.0021   32.8981    1.4495 H         1 UNK         0.0829 
    117 H117       30.1423   31.6936   -0.5392 H         1 UNK         0.0813 
    118 H118       31.6625   32.4816   -0.9272 H         1 UNK         0.0813 
    119 H119       31.6295   30.7476   -0.6463 H         1 UNK         0.0813 
    120 H120       32.7289   33.8778    2.2447 H         1 UNK         0.3038 
    121 H121       34.7230   34.4225    3.0004 H         1 UNK         0.0769 
    122 H122       36.7824   33.7496    1.8614 H         1 UNK         0.0811 
    123 H123       35.5408   34.0379    0.6549 H         1 UNK         0.0811 
    124 H124       35.9851   32.3882    1.0930 H         1 UNK         0.0811 
    125 H125       33.1544   32.3512    4.2607 H         1 UNK         0.3204 
    126 H126       33.0972   31.3877    6.2036 H         1 UNK         0.0748 
    127 H127       34.9685   31.1732    7.7670 H         1 UNK         0.0771 
    128 H128       36.1442   31.5004    6.5076 H         1 UNK         0.0771 
    129 H129       35.0360   32.7666    7.0354 H         1 UNK         0.0771 
    130 H130       33.1958   29.3007    7.1121 H         1 UNK         0.2980 
    131 H131       33.7989   27.1963    5.1486 H         1 UNK         0.0545 
    132 H132       35.6994   28.5373    7.5650 H         1 UNK         0.3459 
    133 H133       36.6093   27.0938    7.9318 H         1 UNK         0.3459 
    134 H134       32.4751   26.0879    7.4754 H         1 UNK         0.0616 
    135 H135       31.6990   27.5986    7.1665 H         1 UNK         0.0616 
    136 H136       32.7750   24.1869    5.6966 H         1 UNK         0.0634 
    137 H137       31.2700   24.0419    6.5755 H         1 UNK         0.0634 
@<TRIPOS>BOND
     1    1    2 1    
     2    1   72 1    
     3    1   73 1    
     4    1   74 1    
     5    2    3 2    
     6    2    4 am   BACKBONE|DICT|INTERRES
     7    4    5 1    
     8    4   75 1    
     9    5    6 1    
    10    5   35 1    
    11    5   76 1    
    12    6    7 1    
    13    6   77 1    
    14    6   78 1    
    15    7    8 1    
    16    8    9 1    
    17    8   79 1    
    18    8   80 1    
    19    9   10 ar   
    20    9   14 ar   
    21   10   11 ar   
    22   10   81 1    
    23   11   12 ar   
    24   11   71 1    
    25   12   13 ar   
    26   12   82 1    
    27   13   14 ar   
    28   13   15 1    
    29   14   83 1    
    30   15   16 1    
    31   15   84 1    
    32   15   85 1    
    33   16   17 1    
    34   17   18 1    
    35   17   86 1    
    36   17   87 1    
    37   18   19 1    
    38   18   37 1    
    39   18   88 1    
    40   19   20 am   BACKBONE|DICT|INTERRES
    41   19   89 1    
    42   20   21 2    
    43   20   22 1    
    44   22   23 1    
    45   22   24 1    
    46   22   90 1    
    47   23   91 1    
    48   23   92 1    
    49   23   93 1    
    50   24   25 am   BACKBONE|DICT|INTERRES
    51   24   94 1    
    52   25   26 2    
    53   25   27 1    
    54   27   28 1    
    55   27   29 1    
    56   27   95 1    
    57   28   96 1    
    58   28   97 1    
    59   28   98 1    
    60   29   30 am   BACKBONE|DICT|INTERRES
    61   29   99 1    
    62   30   31 2    
    63   30   32 1    
    64   32   33 1    
    65   32   34 1    
    66   32  100 1    
    67   33  101 1    
    68   33  102 1    
    69   33  103 1    
    70   34   35 am   BACKBONE|DICT|INTERRES
    71   34  104 1    
    72   35   36 2    
    73   37   38 2    
    74   37   39 am   BACKBONE|DICT|INTERRES
    75   39   40 1    
    76   39  105 1    
    77   40   41 1    
    78   40   42 1    
    79   40  106 1    
    80   41  107 1    
    81   41  108 1    
    82   41  109 1    
    83   42   43 2    
    84   42   44 am   BACKBONE|DICT|INTERRES
    85   44   45 1    
    86   44  110 1    
    87   45   46 1    
    88   45   47 1    
    89   45  111 1    
    90   46  112 1    
    91   46  113 1    
    92   46  114 1    
    93   47   48 2    
    94   47   49 am   BACKBONE|DICT|INTERRES
    95   49   50 1    
    96   49  115 1    
    97   50   51 1    
    98   50   52 1    
    99   50  116 1    
   100   51  117 1    
   101   51  118 1    
   102   51  119 1    
   103   52   53 2    
   104   52   54 am   BACKBONE|DICT|INTERRES
   105   54   55 1    
   106   54  120 1    
   107   55   56 1    
   108   55   57 1    
   109   55  121 1    
   110   56  122 1    
   111   56  123 1    
   112   56  124 1    
   113   57   58 2    
   114   57   59 am   BACKBONE|DICT|INTERRES
   115   59   60 1    
   116   59  125 1    
   117   60   61 1    
   118   60   62 1    
   119   60  126 1    
   120   61  127 1    
   121   61  128 1    
   122   61  129 1    
   123   62   63 2    
   124   62   64 am   BACKBONE|DICT|INTERRES
   125   64   65 1    
   126   64  130 1    
   127   65   66 1    
   128   65   69 1    
   129   65  131 1    
   130   66   67 am   BACKBONE|DICT|INTERRES
   131   66   68 2    
   132   67  132 1    
   133   67  133 1    
   134   69   70 1    
   135   69  134 1    
   136   69  135 1    
   137   70   71 1    
   138   71  136 1    
   139   71  137 1    
@<TRIPOS>SUBSTRUCTURE
     1 UNK         1 GROUP             0       ****    0 ROOT    
