@<TRIPOS>MOLECULE
3R136
137   139    1
SMALL
USER_CHARGES


@<TRIPOS>ATOM
      1 CA         26.4603   22.3101    5.1875 C.3       0 UNK        -0.1979 
      2 C          26.4781   22.4038    3.6691 C.2       0 UNK         0.4864 
      3 O          25.6723   21.7491    3.0068 O.2       0 UNK        -0.5359 
      4 N          27.3920   23.2138    3.1162 N.am      1 UNK        -0.4318 
      5 CA         27.5788   23.4234    1.6702 C.3       1 UNK         0.0824 
      6 C6         28.9736   24.0268    1.3402 C.3       12 UNK        -0.0944 
      7 S7         30.3115   23.0650    2.1463 S.3       12 UNK        -0.2672 
      8 C8         31.7004   23.1300    0.9696 C.3       12 UNK         0.0333 
      9 C9         32.4763   24.4323    1.0972 C.ar      12 UNK        -0.0807 
     10 C10        33.2441   24.6915    2.2379 C.ar      12 UNK        -0.0894 
     11 C11        33.9140   25.9109    2.3868 C.ar      12 UNK        -0.0804 
     12 C12        33.7847   26.8835    1.3863 C.ar      12 UNK        -0.0824 
     13 C13        33.0477   26.6229    0.2284 C.ar      12 UNK        -0.0762 
     14 C14        32.4196   25.3836    0.0787 C.ar      12 UNK        -0.0782 
     15 C15        32.9202   27.6833   -0.8560 C.3       12 UNK         0.0230 
     16 S16        31.4210   28.6943   -0.6366 S.3       12 UNK        -0.2608 
     17 C17        30.1249   27.4646   -0.9997 C.3       12 UNK        -0.0989 
     18 CA         28.6882   28.0441   -1.0276 C.3       5 UNK         0.0716 
     19 N          27.7526   27.1143   -1.6551 N.am      5 UNK        -0.4135 
     20 C          27.7614   26.7589   -2.9455 C.2       4 UNK         0.5031 
     21 O          28.4953   27.2713   -3.7916 O.2       4 UNK        -0.5229 
     22 CA         26.8227   25.6201   -3.3711 C.3       4 UNK         0.0329 
     23 CB         27.5366   24.2646   -3.2363 C.3       4 UNK        -0.2001 
     24 N          25.5760   25.5959   -2.6058 N.am      4 UNK        -0.4303 
     25 C          24.5307   26.3954   -2.8636 C.2       3 UNK         0.5044 
     26 O          24.5173   27.2303   -3.7693 O.2       3 UNK        -0.5152 
     27 CA         23.2785   26.2375   -1.9836 C.3       3 UNK         0.0319 
     28 CB         22.2407   25.3445   -2.6828 C.3       3 UNK        -0.2001 
     29 N          23.5592   25.6932   -0.6547 N.am      3 UNK        -0.4354 
     30 C          24.2014   26.3500    0.3204 C.2       2 UNK         0.4964 
     31 O          24.6148   27.5030    0.2036 O.2       2 UNK        -0.5047 
     32 CA         24.3759   25.6091    1.6601 C.3       2 UNK         0.0288 
     33 CB         23.2864   24.5416    1.9093 C.3       2 UNK        -0.2113 
     34 N          25.6987   25.0057    1.8656 N.am      2 UNK        -0.4145 
     35 C          26.4074   24.2172    1.0382 C.2       1 UNK         0.5006 
     36 O          26.1373   24.0447   -0.1520 O.2       1 UNK        -0.5103 
     37 C          28.1946   28.3138    0.4023 C.2       5 UNK         0.5055 
     38 O          27.5297   27.4574    0.9863 O.2       5 UNK        -0.5220 
     39 N          28.6008   29.4571    0.9692 N.am      6 UNK        -0.4450 
     40 CA         28.3038   29.8788    2.3436 C.3       6 UNK         0.0367 
     41 CB         28.5976   31.3829    2.4737 C.3       6 UNK        -0.1929 
     42 C          29.0345   29.0727    3.4418 C.2       6 UNK         0.5070 
     43 O          28.8234   29.3514    4.6234 O.2       6 UNK        -0.5237 
     44 N          29.8698   28.0981    3.0505 N.am      7 UNK        -0.4739 
     45 CA         30.5944   27.1500    3.9014 C.3       7 UNK         0.0276 
     46 CB         29.6082   26.1941    4.6127 C.3       7 UNK        -0.1927 
     47 C          31.5627   27.8781    4.8482 C.2       7 UNK         0.5013 
     48 O          32.4355   28.6016    4.3666 O.2       7 UNK        -0.5193 
     49 N          31.3980   27.7067    6.1671 N.am      8 UNK        -0.4253 
     50 CA         32.2285   28.3166    7.2115 C.3       8 UNK         0.0242 
     51 CB         31.7249   27.8655    8.5915 C.3       8 UNK        -0.2000 
     52 C          32.3115   29.8527    7.1449 C.2       8 UNK         0.4948 
     53 O          33.3428   30.4095    7.5182 O.2       8 UNK        -0.5275 
     54 N          31.2613   30.5092    6.6313 N.am      9 UNK        -0.4246 
     55 CA         31.2470   31.9517    6.3795 C.3       9 UNK         0.0261 
     56 CB         29.7952   32.4258    6.2162 C.3       9 UNK        -0.1959 
     57 C          32.1071   32.3740    5.1714 C.2       9 UNK         0.5033 
     58 O          32.4896   33.5431    5.1029 O.2       9 UNK        -0.5390 
     59 N          32.4040   31.4422    4.2529 N.am      10 UNK        -0.4215 
     60 CA         33.3144   31.6536    3.1276 C.3       10 UNK         0.0240 
     61 CB         32.8487   30.8423    1.9063 C.3       10 UNK        -0.1982 
     62 C          34.7571   31.2944    3.5132 C.2       10 UNK         0.4970 
     63 O          35.6617   32.0766    3.2177 O.2       10 UNK        -0.4916 
     64 N          34.9536   30.1359    4.1621 N.am      11 UNK        -0.4279 
     65 CA         36.2760   29.6840    4.6339 C.3       11 UNK         0.1003 
     66 C          36.8413   30.4904    5.8374 C.2       11 UNK         0.5709 
     67 N          36.0196   31.0636    6.7068 N.am      11 UNK        -0.7358 
     68 O          38.0566   30.6076    5.9771 O.2       11 UNK        -0.4999 
     69 C69        36.3249   28.1587    4.9142 C.3       12 UNK        -0.0954 
     70 S70        36.2149   27.1835    3.3764 S.3       12 UNK        -0.2268 
     71 C71        34.7212   26.1751    3.6566 C.3       12 UNK         0.0203 
     72 H72        25.4892   22.6221    5.5710 H         1 UNK         0.0888 
     73 H73        26.6365   21.2816    5.5015 H         1 UNK         0.0888 
     74 H74        27.2237   22.9393    5.6448 H         1 UNK         0.0888 
     75 H75        28.0608   23.6814    3.7102 H         1 UNK         0.3017 
     76 H76        27.5466   22.4350    1.2060 H         1 UNK         0.0873 
     77 H77        29.0415   25.0665    1.6633 H         1 UNK         0.0745 
     78 H78        29.1338   24.0321    0.2606 H         1 UNK         0.0745 
     79 H79        31.3324   22.9793   -0.0464 H         1 UNK         0.0705 
     80 H80        32.3734   22.2969    1.1772 H         1 UNK         0.0705 
     81 H81        33.2998   23.9469    3.0205 H         1 UNK         0.1334 
     82 H82        34.2600   27.8471    1.5049 H         1 UNK         0.1417 
     83 H83        31.8543   25.1726   -0.8184 H         1 UNK         0.1562 
     84 H84        32.9099   27.2185   -1.8431 H         1 UNK         0.0748 
     85 H85        33.7910   28.3405   -0.8395 H         1 UNK         0.0748 
     86 H86        30.1706   26.6545   -0.2720 H         1 UNK         0.0940 
     87 H87        30.3809   27.0191   -1.9615 H         1 UNK         0.0940 
     88 H88        28.6677   28.9779   -1.5936 H         1 UNK         0.0703 
     89 H89        27.0946   26.6914   -1.0106 H         1 UNK         0.3081 
     90 H90        26.5823   25.7650   -4.4268 H         1 UNK         0.0719 
     91 H91        28.4345   24.2355   -3.8550 H         1 UNK         0.0809 
     92 H92        27.8449   24.0669   -2.2092 H         1 UNK         0.0809 
     93 H93        26.8953   23.4439   -3.5578 H         1 UNK         0.0809 
     94 H94        25.5334   24.9580   -1.8156 H         1 UNK         0.2990 
     95 H95        22.8421   27.2306   -1.8563 H         1 UNK         0.0690 
     96 H96        21.3150   25.2872   -2.1097 H         1 UNK         0.0788 
     97 H97        22.6123   24.3289   -2.8258 H         1 UNK         0.0788 
     98 H98        21.9858   25.7397   -3.6673 H         1 UNK         0.0788 
     99 H99        23.2652   24.7436   -0.4768 H         1 UNK         0.2993 
    100 H100       24.2666   26.3715    2.4331 H         1 UNK         0.0949 
    101 H101       22.2859   24.9511    1.7614 H         1 UNK         0.0767 
    102 H102       23.3970   23.6778    1.2525 H         1 UNK         0.0767 
    103 H103       23.3310   24.1742    2.9349 H         1 UNK         0.0767 
    104 H104       26.0694   25.1159    2.7978 H         1 UNK         0.3013 
    105 H105       29.1977   30.0706    0.4318 H         1 UNK         0.3121 
    106 H106       27.2341   29.7297    2.5061 H         1 UNK         0.0774 
    107 H107       28.1918   31.7749    3.4057 H         1 UNK         0.0815 
    108 H108       29.6677   31.5913    2.4672 H         1 UNK         0.0815 
    109 H109       28.1366   31.9534    1.6672 H         1 UNK         0.0815 
    110 H110       30.0192   27.9925    2.0578 H         1 UNK         0.2987 
    111 H111       31.2128   26.5502    3.2328 H         1 UNK         0.0949 
    112 H112       30.1390   25.3982    5.1370 H         1 UNK         0.0806 
    113 H113       28.9467   25.7150    3.8939 H         1 UNK         0.0806 
    114 H114       28.9740   26.7105    5.3343 H         1 UNK         0.0806 
    115 H115       30.6412   27.1154    6.4780 H         1 UNK         0.3010 
    116 H116       33.2435   27.9367    7.0771 H         1 UNK         0.0829 
    117 H117       30.6974   28.1847    8.7707 H         1 UNK         0.0813 
    118 H118       31.7642   26.7810    8.6947 H         1 UNK         0.0813 
    119 H119       32.3404   28.2865    9.3880 H         1 UNK         0.0813 
    120 H120       30.4571   29.9797    6.3174 H         1 UNK         0.3038 
    121 H121       31.6628   32.4533    7.2563 H         1 UNK         0.0769 
    122 H122       29.7510   33.4976    6.0172 H         1 UNK         0.0811 
    123 H123       29.2142   32.2400    7.1195 H         1 UNK         0.0811 
    124 H124       29.2995   31.9184    5.3910 H         1 UNK         0.0811 
    125 H125       32.1105   30.4818    4.4079 H         1 UNK         0.3204 
    126 H126       33.3000   32.7077    2.8416 H         1 UNK         0.0748 
    127 H127       33.5255   30.9845    1.0628 H         1 UNK         0.0771 
    128 H128       32.8083   29.7726    2.1089 H         1 UNK         0.0771 
    129 H129       31.8583   31.1541    1.5774 H         1 UNK         0.0771 
    130 H130       34.1628   29.5249    4.3396 H         1 UNK         0.2980 
    131 H131       36.9773   29.8720    3.8179 H         1 UNK         0.0545 
    132 H132       35.0186   30.8989    6.6841 H         1 UNK         0.3459 
    133 H133       36.4134   31.5875    7.4713 H         1 UNK         0.3459 
    134 H134       37.2690   27.8824    5.3879 H         1 UNK         0.0616 
    135 H135       35.5412   27.8729    5.6172 H         1 UNK         0.0616 
    136 H136       34.0753   26.6553    4.3861 H         1 UNK         0.0634 
    137 H137       35.0361   25.2324    4.1066 H         1 UNK         0.0634 
@<TRIPOS>BOND
     1    1    2 1    
     2    1   72 1    
     3    1   73 1    
     4    1   74 1    
     5    2    3 2    
     6    2    4 am   BACKBONE|DICT|INTERRES
     7    4    5 1    
     8    4   75 1    
     9    5    6 1    
    10    5   35 1    
    11    5   76 1    
    12    6    7 1    
    13    6   77 1    
    14    6   78 1    
    15    7    8 1    
    16    8    9 1    
    17    8   79 1    
    18    8   80 1    
    19    9   10 ar   
    20    9   14 ar   
    21   10   11 ar   
    22   10   81 1    
    23   11   12 ar   
    24   11   71 1    
    25   12   13 ar   
    26   12   82 1    
    27   13   14 ar   
    28   13   15 1    
    29   14   83 1    
    30   15   16 1    
    31   15   84 1    
    32   15   85 1    
    33   16   17 1    
    34   17   18 1    
    35   17   86 1    
    36   17   87 1    
    37   18   19 1    
    38   18   37 1    
    39   18   88 1    
    40   19   20 am   BACKBONE|DICT|INTERRES
    41   19   89 1    
    42   20   21 2    
    43   20   22 1    
    44   22   23 1    
    45   22   24 1    
    46   22   90 1    
    47   23   91 1    
    48   23   92 1    
    49   23   93 1    
    50   24   25 am   BACKBONE|DICT|INTERRES
    51   24   94 1    
    52   25   26 2    
    53   25   27 1    
    54   27   28 1    
    55   27   29 1    
    56   27   95 1    
    57   28   96 1    
    58   28   97 1    
    59   28   98 1    
    60   29   30 am   BACKBONE|DICT|INTERRES
    61   29   99 1    
    62   30   31 2    
    63   30   32 1    
    64   32   33 1    
    65   32   34 1    
    66   32  100 1    
    67   33  101 1    
    68   33  102 1    
    69   33  103 1    
    70   34   35 am   BACKBONE|DICT|INTERRES
    71   34  104 1    
    72   35   36 2    
    73   37   38 2    
    74   37   39 am   BACKBONE|DICT|INTERRES
    75   39   40 1    
    76   39  105 1    
    77   40   41 1    
    78   40   42 1    
    79   40  106 1    
    80   41  107 1    
    81   41  108 1    
    82   41  109 1    
    83   42   43 2    
    84   42   44 am   BACKBONE|DICT|INTERRES
    85   44   45 1    
    86   44  110 1    
    87   45   46 1    
    88   45   47 1    
    89   45  111 1    
    90   46  112 1    
    91   46  113 1    
    92   46  114 1    
    93   47   48 2    
    94   47   49 am   BACKBONE|DICT|INTERRES
    95   49   50 1    
    96   49  115 1    
    97   50   51 1    
    98   50   52 1    
    99   50  116 1    
   100   51  117 1    
   101   51  118 1    
   102   51  119 1    
   103   52   53 2    
   104   52   54 am   BACKBONE|DICT|INTERRES
   105   54   55 1    
   106   54  120 1    
   107   55   56 1    
   108   55   57 1    
   109   55  121 1    
   110   56  122 1    
   111   56  123 1    
   112   56  124 1    
   113   57   58 2    
   114   57   59 am   BACKBONE|DICT|INTERRES
   115   59   60 1    
   116   59  125 1    
   117   60   61 1    
   118   60   62 1    
   119   60  126 1    
   120   61  127 1    
   121   61  128 1    
   122   61  129 1    
   123   62   63 2    
   124   62   64 am   BACKBONE|DICT|INTERRES
   125   64   65 1    
   126   64  130 1    
   127   65   66 1    
   128   65   69 1    
   129   65  131 1    
   130   66   67 am   BACKBONE|DICT|INTERRES
   131   66   68 2    
   132   67  132 1    
   133   67  133 1    
   134   69   70 1    
   135   69  134 1    
   136   69  135 1    
   137   70   71 1    
   138   71  136 1    
   139   71  137 1    
@<TRIPOS>SUBSTRUCTURE
     1 UNK         1 GROUP             0       ****    0 ROOT    
