@<TRIPOS>MOLECULE
3R136
137   139    1
SMALL
USER_CHARGES


@<TRIPOS>ATOM
      1 CA         27.3450   19.6235   -2.7847 C.3       0 UNK        -0.1979 
      2 C          27.8504   21.0046   -2.3958 C.2       0 UNK         0.4864 
      3 O          27.4920   21.9922   -3.0384 O.2       0 UNK        -0.5359 
      4 N          28.6705   21.0867   -1.3391 N.am      1 UNK        -0.4318 
      5 CA         29.2673   22.3287   -0.8295 C.3       1 UNK         0.0824 
      6 C6         30.5473   22.0558    0.0014 C.3       12 UNK        -0.0944 
      7 S7         30.2635   21.0423    1.4953 S.3       12 UNK        -0.2672 
      8 C8         31.8219   21.2964    2.4049 C.3       12 UNK         0.0333 
      9 C9         31.9612   22.7179    2.9348 C.ar      12 UNK        -0.0807 
     10 C10        32.8998   23.5930    2.3786 C.ar      12 UNK        -0.0894 
     11 C11        33.0444   24.8917    2.8774 C.ar      12 UNK        -0.0804 
     12 C12        32.2266   25.3193    3.9265 C.ar      12 UNK        -0.0824 
     13 C13        31.2752   24.4594    4.4841 C.ar      12 UNK        -0.0762 
     14 C14        31.1627   23.1525    3.9967 C.ar      12 UNK        -0.0782 
     15 C15        30.3895   24.9524    5.6235 C.3       12 UNK         0.0230 
     16 S16        28.6113   24.6000    5.3954 S.3       12 UNK        -0.2608 
     17 C17        28.2731   25.0858    3.6663 C.3       12 UNK        -0.0989 
     18 CA         28.6299   26.5450    3.2891 C.3       5 UNK         0.0716 
     19 N          28.7595   26.6848    1.8320 N.am      5 UNK        -0.4135 
     20 C          29.1296   27.7879    1.1645 C.2       4 UNK         0.5031 
     21 O          29.4319   28.8456    1.7104 O.2       4 UNK        -0.5229 
     22 CA         29.0950   27.7225   -0.3700 C.3       4 UNK         0.0329 
     23 CB         30.3817   27.0983   -0.9293 C.3       4 UNK        -0.2001 
     24 N          27.9361   26.9616   -0.8366 N.am      4 UNK        -0.4303 
     25 C          26.7175   27.4832   -1.0339 C.2       3 UNK         0.5044 
     26 O          26.4595   28.6818   -0.9247 O.2       3 UNK        -0.5152 
     27 CA         25.5863   26.5051   -1.4032 C.3       3 UNK         0.0319 
     28 CB         25.4653   26.3744   -2.9297 C.3       3 UNK        -0.2001 
     29 N          25.7454   25.1720   -0.8150 N.am      3 UNK        -0.4354 
     30 C          25.7014   24.9089    0.4990 C.2       2 UNK         0.4964 
     31 O          25.5030   25.7628    1.3636 O.2       2 UNK        -0.5047 
     32 CA         25.9777   23.4544    0.9231 C.3       2 UNK         0.0288 
     33 CB         24.6881   22.6215    0.8481 C.3       2 UNK        -0.2113 
     34 N          27.0370   22.7771    0.1635 N.am      2 UNK        -0.4145 
     35 C          28.2757   23.2407   -0.0715 C.2       1 UNK         0.5006 
     36 O          28.6555   24.3568    0.2828 O.2       1 UNK        -0.5103 
     37 C          27.6408   27.5535    3.9155 C.2       5 UNK         0.5055 
     38 O          27.8338   27.9620    5.0607 O.2       5 UNK        -0.5220 
     39 N          26.6377   27.9912    3.1398 N.am      6 UNK        -0.4450 
     40 CA         25.7310   29.0962    3.4679 C.3       6 UNK         0.0367 
     41 CB         24.6833   29.2266    2.3511 C.3       6 UNK        -0.1929 
     42 C          26.4374   30.4501    3.7044 C.2       6 UNK         0.5070 
     43 O          25.8661   31.3110    4.3740 O.2       6 UNK        -0.5237 
     44 N          27.6591   30.6123    3.1799 N.am      7 UNK        -0.4739 
     45 CA         28.5474   31.7480    3.4049 C.3       7 UNK         0.0276 
     46 CB         28.6198   32.5960    2.1212 C.3       7 UNK        -0.1927 
     47 C          29.9205   31.2127    3.8421 C.2       7 UNK         0.5013 
     48 O          30.9341   31.5257    3.2147 O.2       7 UNK        -0.5193 
     49 N          29.9349   30.4001    4.9112 N.am      8 UNK        -0.4253 
     50 CA         31.1097   29.6951    5.4472 C.3       8 UNK         0.0242 
     51 CB         30.7264   28.9636    6.7437 C.3       8 UNK        -0.2000 
     52 C          32.3493   30.5741    5.6952 C.2       8 UNK         0.4948 
     53 O          33.4681   30.1017    5.4972 O.2       8 UNK        -0.5275 
     54 N          32.1311   31.8395    6.0808 N.am      9 UNK        -0.4246 
     55 CA         33.1746   32.8533    6.2563 C.3       9 UNK         0.0261 
     56 CB         32.5668   34.0926    6.9331 C.3       9 UNK        -0.1959 
     57 C          33.8860   33.2499    4.9476 C.2       9 UNK         0.5033 
     58 O          35.0522   33.6431    5.0022 O.2       9 UNK        -0.5390 
     59 N          33.1902   33.1426    3.8063 N.am      10 UNK        -0.4215 
     60 CA         33.7551   33.3480    2.4721 C.3       10 UNK         0.0240 
     61 CB         32.6733   33.8942    1.5248 C.3       10 UNK        -0.1982 
     62 C          34.3580   32.0468    1.9206 C.2       10 UNK         0.4970 
     63 O          35.3908   32.1070    1.2524 O.2       10 UNK        -0.4916 
     64 N          33.7172   30.9037    2.2096 N.am      11 UNK        -0.4279 
     65 CA         34.2117   29.5624    1.8628 C.3       11 UNK         0.1003 
     66 C          35.5556   29.2036    2.5591 C.2       11 UNK         0.5709 
     67 N          35.6924   29.4435    3.8571 N.am      11 UNK        -0.7358 
     68 O          36.4820   28.7163    1.9156 O.2       11 UNK        -0.4999 
     69 C69        33.1293   28.4759    2.1020 C.3       12 UNK        -0.0954 
     70 S70        33.4068   26.9821    1.0895 S.3       12 UNK        -0.2268 
     71 C71        34.1051   25.8183    2.3008 C.3       12 UNK         0.0203 
     72 H72        27.7330   18.8468   -2.1258 H         1 UNK         0.0888 
     73 H73        26.2567   19.5950   -2.7391 H         1 UNK         0.0888 
     74 H74        27.6498   19.3866   -3.8037 H         1 UNK         0.0888 
     75 H75        28.9264   20.2483   -0.8351 H         1 UNK         0.3017 
     76 H76        29.5809   22.9111   -1.6987 H         1 UNK         0.0873 
     77 H77        31.2856   21.5453   -0.6188 H         1 UNK         0.0745 
     78 H78        31.0112   23.0009    0.2896 H         1 UNK         0.0745 
     79 H79        32.6615   21.0367    1.7581 H         1 UNK         0.0705 
     80 H80        31.8565   20.5988    3.2429 H         1 UNK         0.0705 
     81 H81        33.5270   23.2598    1.5630 H         1 UNK         0.1334 
     82 H82        32.3358   26.3229    4.3125 H         1 UNK         0.1417 
     83 H83        30.4369   22.4775    4.4299 H         1 UNK         0.1562 
     84 H84        30.5099   26.0264    5.7678 H         1 UNK         0.0748 
     85 H85        30.7207   24.4846    6.5514 H         1 UNK         0.0748 
     86 H86        27.2173   24.8967    3.4710 H         1 UNK         0.0940 
     87 H87        28.8164   24.3894    3.0257 H         1 UNK         0.0940 
     88 H88        29.6151   26.7855    3.6894 H         1 UNK         0.0703 
     89 H89        28.5922   25.8415    1.2864 H         1 UNK         0.3081 
     90 H90        29.0291   28.7446   -0.7497 H         1 UNK         0.0719 
     91 H91        30.5847   26.1166   -0.4989 H         1 UNK         0.0809 
     92 H92        30.3331   26.9877   -2.0125 H         1 UNK         0.0809 
     93 H93        31.2380   27.7362   -0.7110 H         1 UNK         0.0809 
     94 H94        28.0489   25.9561   -0.8835 H         1 UNK         0.2990 
     95 H95        24.6538   26.9270   -1.0218 H         1 UNK         0.0690 
     96 H96        26.3589   25.9296   -3.3696 H         1 UNK         0.0788 
     97 H97        25.3241   27.3511   -3.3949 H         1 UNK         0.0788 
     98 H98        24.6104   25.7582   -3.2090 H         1 UNK         0.0788 
     99 H99        25.9243   24.4082   -1.4518 H         1 UNK         0.2993 
    100 H100       26.3003   23.4735    1.9640 H         1 UNK         0.0949 
    101 H101       24.3372   22.5107   -0.1788 H         1 UNK         0.0767 
    102 H102       24.8346   21.6238    1.2627 H         1 UNK         0.0767 
    103 H103       23.8855   23.0915    1.4186 H         1 UNK         0.0767 
    104 H104       26.8230   21.8500   -0.1726 H         1 UNK         0.3013 
    105 H105       26.4984   27.5402    2.2435 H         1 UNK         0.3121 
    106 H106       25.2171   28.8326    4.3944 H         1 UNK         0.0774 
    107 H107       23.9576   30.0067    2.5851 H         1 UNK         0.0815 
    108 H108       25.1439   29.4852    1.3969 H         1 UNK         0.0815 
    109 H109       24.1284   28.2979    2.2150 H         1 UNK         0.0815 
    110 H110       28.0822   29.8458    2.6604 H         1 UNK         0.2987 
    111 H111       28.1754   32.3763    4.2169 H         1 UNK         0.0949 
    112 H112       29.0134   32.0196    1.2826 H         1 UNK         0.0806 
    113 H113       27.6361   32.9706    1.8383 H         1 UNK         0.0806 
    114 H114       29.2699   33.4609    2.2589 H         1 UNK         0.0806 
    115 H115       29.0452   30.1548    5.3251 H         1 UNK         0.3010 
    116 H116       31.3872   28.9460    4.7041 H         1 UNK         0.0829 
    117 H117       31.5754   28.4078    7.1448 H         1 UNK         0.0813 
    118 H118       30.3973   29.6589    7.5168 H         1 UNK         0.0813 
    119 H119       29.9246   28.2455    6.5795 H         1 UNK         0.0813 
    120 H120       31.1767   32.1360    6.2237 H         1 UNK         0.3038 
    121 H121       33.9320   32.4365    6.9238 H         1 UNK         0.0769 
    122 H122       33.3275   34.8558    7.1038 H         1 UNK         0.0811 
    123 H123       32.1365   33.8451    7.9037 H         1 UNK         0.0811 
    124 H124       31.7842   34.5444    6.3221 H         1 UNK         0.0811 
    125 H125       32.2535   32.7487    3.8336 H         1 UNK         0.3204 
    126 H126       34.5538   34.0909    2.5281 H         1 UNK         0.0748 
    127 H127       33.0927   34.1090    0.5411 H         1 UNK         0.0771 
    128 H128       31.8580   33.1846    1.3806 H         1 UNK         0.0771 
    129 H129       32.2460   34.8223    1.9046 H         1 UNK         0.0771 
    130 H130       32.8430   30.9507    2.7198 H         1 UNK         0.2980 
    131 H131       34.4114   29.5932    0.7897 H         1 UNK         0.0545 
    132 H132       34.9094   29.7900    4.4079 H         1 UNK         0.3459 
    133 H133       36.5636   29.2221    4.3106 H         1 UNK         0.3459 
    134 H134       33.0549   28.2179    3.1584 H         1 UNK         0.0616 
    135 H135       32.1488   28.8629    1.8216 H         1 UNK         0.0616 
    136 H136       34.6084   26.3592    3.1033 H         1 UNK         0.0634 
    137 H137       34.8808   25.2334    1.8044 H         1 UNK         0.0634 
@<TRIPOS>BOND
     1    1    2 1    
     2    1   72 1    
     3    1   73 1    
     4    1   74 1    
     5    2    3 2    
     6    2    4 am   BACKBONE|DICT|INTERRES
     7    4    5 1    
     8    4   75 1    
     9    5    6 1    
    10    5   35 1    
    11    5   76 1    
    12    6    7 1    
    13    6   77 1    
    14    6   78 1    
    15    7    8 1    
    16    8    9 1    
    17    8   79 1    
    18    8   80 1    
    19    9   10 ar   
    20    9   14 ar   
    21   10   11 ar   
    22   10   81 1    
    23   11   12 ar   
    24   11   71 1    
    25   12   13 ar   
    26   12   82 1    
    27   13   14 ar   
    28   13   15 1    
    29   14   83 1    
    30   15   16 1    
    31   15   84 1    
    32   15   85 1    
    33   16   17 1    
    34   17   18 1    
    35   17   86 1    
    36   17   87 1    
    37   18   19 1    
    38   18   37 1    
    39   18   88 1    
    40   19   20 am   BACKBONE|DICT|INTERRES
    41   19   89 1    
    42   20   21 2    
    43   20   22 1    
    44   22   23 1    
    45   22   24 1    
    46   22   90 1    
    47   23   91 1    
    48   23   92 1    
    49   23   93 1    
    50   24   25 am   BACKBONE|DICT|INTERRES
    51   24   94 1    
    52   25   26 2    
    53   25   27 1    
    54   27   28 1    
    55   27   29 1    
    56   27   95 1    
    57   28   96 1    
    58   28   97 1    
    59   28   98 1    
    60   29   30 am   BACKBONE|DICT|INTERRES
    61   29   99 1    
    62   30   31 2    
    63   30   32 1    
    64   32   33 1    
    65   32   34 1    
    66   32  100 1    
    67   33  101 1    
    68   33  102 1    
    69   33  103 1    
    70   34   35 am   BACKBONE|DICT|INTERRES
    71   34  104 1    
    72   35   36 2    
    73   37   38 2    
    74   37   39 am   BACKBONE|DICT|INTERRES
    75   39   40 1    
    76   39  105 1    
    77   40   41 1    
    78   40   42 1    
    79   40  106 1    
    80   41  107 1    
    81   41  108 1    
    82   41  109 1    
    83   42   43 2    
    84   42   44 am   BACKBONE|DICT|INTERRES
    85   44   45 1    
    86   44  110 1    
    87   45   46 1    
    88   45   47 1    
    89   45  111 1    
    90   46  112 1    
    91   46  113 1    
    92   46  114 1    
    93   47   48 2    
    94   47   49 am   BACKBONE|DICT|INTERRES
    95   49   50 1    
    96   49  115 1    
    97   50   51 1    
    98   50   52 1    
    99   50  116 1    
   100   51  117 1    
   101   51  118 1    
   102   51  119 1    
   103   52   53 2    
   104   52   54 am   BACKBONE|DICT|INTERRES
   105   54   55 1    
   106   54  120 1    
   107   55   56 1    
   108   55   57 1    
   109   55  121 1    
   110   56  122 1    
   111   56  123 1    
   112   56  124 1    
   113   57   58 2    
   114   57   59 am   BACKBONE|DICT|INTERRES
   115   59   60 1    
   116   59  125 1    
   117   60   61 1    
   118   60   62 1    
   119   60  126 1    
   120   61  127 1    
   121   61  128 1    
   122   61  129 1    
   123   62   63 2    
   124   62   64 am   BACKBONE|DICT|INTERRES
   125   64   65 1    
   126   64  130 1    
   127   65   66 1    
   128   65   69 1    
   129   65  131 1    
   130   66   67 am   BACKBONE|DICT|INTERRES
   131   66   68 2    
   132   67  132 1    
   133   67  133 1    
   134   69   70 1    
   135   69  134 1    
   136   69  135 1    
   137   70   71 1    
   138   71  136 1    
   139   71  137 1    
@<TRIPOS>SUBSTRUCTURE
     1 UNK         1 GROUP             0       ****    0 ROOT    
