@<TRIPOS>MOLECULE
3R136
137   139    1
SMALL
USER_CHARGES


@<TRIPOS>ATOM
      1 CA         25.7986   19.5885    0.4669 C.3       0 UNK        -0.1979 
      2 C          26.5400   20.8571    0.0763 C.2       0 UNK         0.4864 
      3 O          25.9369   21.9301    0.0345 O.2       0 UNK        -0.5359 
      4 N          27.8492   20.7542   -0.1919 N.am      1 UNK        -0.4318 
      5 CA         28.7196   21.8664   -0.5984 C.3       1 UNK         0.0824 
      6 C6         30.1382   21.3791   -0.9842 C.3       12 UNK        -0.0944 
      7 S7         31.0358   20.5396    0.3719 S.3       12 UNK        -0.2672 
      8 C8         32.6414   21.4002    0.3670 C.3       12 UNK         0.0333 
      9 C9         32.5417   22.8415    0.8503 C.ar      12 UNK        -0.0807 
     10 C10        32.5154   23.1289    2.2188 C.ar      12 UNK        -0.0894 
     11 C11        32.4771   24.4536    2.6706 C.ar      12 UNK        -0.0804 
     12 C12        32.4507   25.4937    1.7341 C.ar      12 UNK        -0.0824 
     13 C13        32.4645   25.2182    0.3638 C.ar      12 UNK        -0.0762 
     14 C14        32.5199   23.8921   -0.0709 C.ar      12 UNK        -0.0782 
     15 C15        32.4419   26.3483   -0.6546 C.3       12 UNK         0.0230 
     16 S16        30.7893   26.5610   -1.3857 S.3       12 UNK        -0.2608 
     17 C17        29.9001   27.3550   -0.0075 C.3       12 UNK        -0.0989 
     18 CA         28.4956   27.8413   -0.4416 C.3       5 UNK         0.0716 
     19 N          27.5789   26.7216   -0.6704 N.am      5 UNK        -0.4135 
     20 C          26.4008   26.8145   -1.3011 C.2       4 UNK         0.5031 
     21 O          25.9842   27.8470   -1.8295 O.2       4 UNK        -0.5229 
     22 CA         25.5370   25.5422   -1.3569 C.3       4 UNK         0.0329 
     23 CB         26.0480   24.5808   -2.4421 C.3       4 UNK        -0.2001 
     24 N          25.4715   24.8441   -0.0716 N.am      4 UNK        -0.4303 
     25 C          24.8504   25.3103    1.0226 C.2       3 UNK         0.5044 
     26 O          24.2049   26.3586    1.0514 O.2       3 UNK        -0.5152 
     27 CA         24.9572   24.4627    2.3009 C.3       3 UNK         0.0319 
     28 CB         23.8407   23.4067    2.3532 C.3       3 UNK        -0.2001 
     29 N          26.2625   23.8068    2.3982 N.am      3 UNK        -0.4354 
     30 C          27.3477   24.3724    2.9484 C.2       2 UNK         0.4964 
     31 O          27.3274   25.4539    3.5343 O.2       2 UNK        -0.5047 
     32 CA         28.6834   23.6119    2.8404 C.3       2 UNK         0.0288 
     33 CB         28.9788   22.8478    4.1415 C.3       2 UNK        -0.2113 
     34 N          28.7482   22.6753    1.7190 N.am      2 UNK        -0.4145 
     35 C          28.7458   23.0231    0.4247 C.2       1 UNK         0.5006 
     36 O          28.6818   24.1866    0.0300 O.2       1 UNK        -0.5103 
     37 C          27.9255   28.8304    0.5945 C.2       5 UNK         0.5055 
     38 O          27.2332   28.4254    1.5312 O.2       5 UNK        -0.5220 
     39 N          28.2667   30.1131    0.4189 N.am      6 UNK        -0.4450 
     40 CA         28.0000   31.1844    1.3796 C.3       6 UNK         0.0367 
     41 CB         28.0955   32.5365    0.6501 C.3       6 UNK        -0.1929 
     42 C          28.9922   31.1355    2.5556 C.2       6 UNK         0.5070 
     43 O          30.0430   30.5015    2.4507 O.2       6 UNK        -0.5237 
     44 N          28.6567   31.8496    3.6376 N.am      7 UNK        -0.4739 
     45 CA         29.4898   31.9844    4.8397 C.3       7 UNK         0.0276 
     46 CB         28.5831   32.3235    6.0354 C.3       7 UNK        -0.1927 
     47 C          30.6273   33.0178    4.7035 C.2       7 UNK         0.5013 
     48 O          31.4244   33.1615    5.6329 O.2       7 UNK        -0.5193 
     49 N          30.6779   33.7397    3.5753 N.am      8 UNK        -0.4253 
     50 CA         31.7649   34.6517    3.2225 C.3       8 UNK         0.0242 
     51 CB         31.3144   35.5575    2.0642 C.3       8 UNK        -0.2000 
     52 C          33.0203   33.8514    2.8390 C.2       8 UNK         0.4948 
     53 O          32.9210   32.9459    2.0087 O.2       8 UNK        -0.5275 
     54 N          34.1646   34.2173    3.4361 N.am      9 UNK        -0.4246 
     55 CA         35.4675   33.5445    3.3318 C.3       9 UNK         0.0261 
     56 CB         36.0294   33.6230    1.8947 C.3       9 UNK        -0.1959 
     57 C          35.4246   32.1087    3.8969 C.2       9 UNK         0.5033 
     58 O          35.8085   31.1602    3.2086 O.2       9 UNK        -0.5390 
     59 N          34.9673   32.0046    5.1549 N.am      10 UNK        -0.4215 
     60 CA         34.7527   30.7897    5.9552 C.3       10 UNK         0.0240 
     61 CB         36.0285   29.9199    6.0344 C.3       10 UNK        -0.1982 
     62 C          33.5104   29.9897    5.5152 C.2       10 UNK         0.4970 
     63 O          32.8061   30.3896    4.5891 O.2       10 UNK        -0.4916 
     64 N          33.2414   28.8901    6.2327 N.am      11 UNK        -0.4279 
     65 CA         32.0302   28.0564    6.1178 C.3       11 UNK         0.1003 
     66 C          30.7438   28.7108    6.7156 C.2       11 UNK         0.5709 
     67 N          30.8528   29.7598    7.5235 N.am      11 UNK        -0.7358 
     68 O          29.6304   28.2497    6.4810 O.2       11 UNK        -0.4999 
     69 C69        31.8303   27.4624    4.6895 C.3       12 UNK        -0.0954 
     70 S70        31.1170   25.7814    4.7266 S.3       12 UNK        -0.2268 
     71 C71        32.5092   24.7463    4.1683 C.3       12 UNK         0.0203 
     72 H72        24.9948   19.3930   -0.2422 H         1 UNK         0.0888 
     73 H73        26.4567   18.7200    0.4833 H         1 UNK         0.0888 
     74 H74        25.3591   19.7018    1.4575 H         1 UNK         0.0888 
     75 H75        28.3018   19.8531   -0.1258 H         1 UNK         0.3017 
     76 H76        28.2723   22.2795   -1.5047 H         1 UNK         0.0873 
     77 H77        30.0650   20.6749   -1.8144 H         1 UNK         0.0745 
     78 H78        30.7247   22.2120   -1.3713 H         1 UNK         0.0745 
     79 H79        33.3312   20.8521    1.0106 H         1 UNK         0.0705 
     80 H80        33.0695   21.3580   -0.6358 H         1 UNK         0.0705 
     81 H81        32.5426   22.3159    2.9315 H         1 UNK         0.1334 
     82 H82        32.4207   26.5204    2.0686 H         1 UNK         0.1417 
     83 H83        32.5485   23.6828   -1.1315 H         1 UNK         0.1562 
     84 H84        33.1529   26.1300   -1.4528 H         1 UNK         0.0748 
     85 H85        32.7709   27.2865   -0.2050 H         1 UNK         0.0748 
     86 H86        30.5112   28.1892    0.3449 H         1 UNK         0.0940 
     87 H87        29.8266   26.6554    0.8282 H         1 UNK         0.0940 
     88 H88        28.5950   28.3791   -1.3873 H         1 UNK         0.0703 
     89 H89        27.8754   25.8194   -0.3038 H         1 UNK         0.3081 
     90 H90        24.5210   25.8411   -1.6234 H         1 UNK         0.0719 
     91 H91        27.0732   24.2635   -2.2512 H         1 UNK         0.0809 
     92 H92        25.4269   23.6870   -2.5065 H         1 UNK         0.0809 
     93 H93        26.0335   25.0589   -3.4224 H         1 UNK         0.0809 
     94 H94        25.9072   23.9286   -0.0240 H         1 UNK         0.2990 
     95 H95        24.8219   25.1297    3.1551 H         1 UNK         0.0690 
     96 H96        23.8932   22.8198    3.2703 H         1 UNK         0.0788 
     97 H97        23.8892   22.7169    1.5103 H         1 UNK         0.0788 
     98 H98        22.8585   23.8805    2.3275 H         1 UNK         0.0788 
     99 H99        26.3639   22.9329    1.8973 H         1 UNK         0.2993 
    100 H100       29.4657   24.3584    2.6882 H         1 UNK         0.0949 
    101 H101       28.9519   23.5182    5.0017 H         1 UNK         0.0767 
    102 H102       28.2499   22.0567    4.3210 H         1 UNK         0.0767 
    103 H103       29.9710   22.3966    4.1175 H         1 UNK         0.0767 
    104 H104       28.8062   21.6930    1.9446 H         1 UNK         0.3013 
    105 H105       28.8753   30.3497   -0.3512 H         1 UNK         0.3121 
    106 H106       26.9875   31.0638    1.7717 H         1 UNK         0.0774 
    107 H107       27.8413   33.3637    1.3139 H         1 UNK         0.0815 
    108 H108       29.1013   32.7210    0.2696 H         1 UNK         0.0815 
    109 H109       27.4053   32.5814   -0.1926 H         1 UNK         0.0815 
    110 H110       27.7785   32.3499    3.6405 H         1 UNK         0.2987 
    111 H111       29.9689   31.0232    5.0361 H         1 UNK         0.0949 
    112 H112       29.1618   32.3987    6.9570 H         1 UNK         0.0806 
    113 H113       28.0688   33.2750    5.8959 H         1 UNK         0.0806 
    114 H114       27.8300   31.5510    6.1925 H         1 UNK         0.0806 
    115 H115       30.0099   33.5255    2.8512 H         1 UNK         0.3010 
    116 H116       31.9833   35.2812    4.0881 H         1 UNK         0.0829 
    117 H117       30.4369   36.1444    2.3364 H         1 UNK         0.0813 
    118 H118       32.1024   36.2606    1.7912 H         1 UNK         0.0813 
    119 H119       31.0693   34.9807    1.1711 H         1 UNK         0.0813 
    120 H120       34.1295   34.9905    4.0867 H         1 UNK         0.3038 
    121 H121       36.1523   34.1021    3.9730 H         1 UNK         0.0769 
    122 H122       37.0455   33.2287    1.8541 H         1 UNK         0.0811 
    123 H123       36.0668   34.6523    1.5384 H         1 UNK         0.0811 
    124 H124       35.4321   33.0449    1.1892 H         1 UNK         0.0811 
    125 H125       34.6299   32.8535    5.5869 H         1 UNK         0.3204 
    126 H126       34.5388   31.1483    6.9632 H         1 UNK         0.0748 
    127 H127       35.9496   29.1668    6.8187 H         1 UNK         0.0771 
    128 H128       36.2200   29.3916    5.0998 H         1 UNK         0.0771 
    129 H129       36.9069   30.5238    6.2627 H         1 UNK         0.0771 
    130 H130       33.8661   28.6380    6.9847 H         1 UNK         0.2980 
    131 H131       32.2376   27.2226    6.7892 H         1 UNK         0.0545 
    132 H132       31.7535   30.1513    7.7434 H         1 UNK         0.3459 
    133 H133       30.0184   30.1571    7.9234 H         1 UNK         0.3459 
    134 H134       31.1925   28.1065    4.0806 H         1 UNK         0.0616 
    135 H135       32.7856   27.4207    4.1658 H         1 UNK         0.0616 
    136 H136       33.4593   25.2133    4.4304 H         1 UNK         0.0634 
    137 H137       32.4683   23.8136    4.7327 H         1 UNK         0.0634 
@<TRIPOS>BOND
     1    1    2 1    
     2    1   72 1    
     3    1   73 1    
     4    1   74 1    
     5    2    3 2    
     6    2    4 am   BACKBONE|DICT|INTERRES
     7    4    5 1    
     8    4   75 1    
     9    5    6 1    
    10    5   35 1    
    11    5   76 1    
    12    6    7 1    
    13    6   77 1    
    14    6   78 1    
    15    7    8 1    
    16    8    9 1    
    17    8   79 1    
    18    8   80 1    
    19    9   10 ar   
    20    9   14 ar   
    21   10   11 ar   
    22   10   81 1    
    23   11   12 ar   
    24   11   71 1    
    25   12   13 ar   
    26   12   82 1    
    27   13   14 ar   
    28   13   15 1    
    29   14   83 1    
    30   15   16 1    
    31   15   84 1    
    32   15   85 1    
    33   16   17 1    
    34   17   18 1    
    35   17   86 1    
    36   17   87 1    
    37   18   19 1    
    38   18   37 1    
    39   18   88 1    
    40   19   20 am   BACKBONE|DICT|INTERRES
    41   19   89 1    
    42   20   21 2    
    43   20   22 1    
    44   22   23 1    
    45   22   24 1    
    46   22   90 1    
    47   23   91 1    
    48   23   92 1    
    49   23   93 1    
    50   24   25 am   BACKBONE|DICT|INTERRES
    51   24   94 1    
    52   25   26 2    
    53   25   27 1    
    54   27   28 1    
    55   27   29 1    
    56   27   95 1    
    57   28   96 1    
    58   28   97 1    
    59   28   98 1    
    60   29   30 am   BACKBONE|DICT|INTERRES
    61   29   99 1    
    62   30   31 2    
    63   30   32 1    
    64   32   33 1    
    65   32   34 1    
    66   32  100 1    
    67   33  101 1    
    68   33  102 1    
    69   33  103 1    
    70   34   35 am   BACKBONE|DICT|INTERRES
    71   34  104 1    
    72   35   36 2    
    73   37   38 2    
    74   37   39 am   BACKBONE|DICT|INTERRES
    75   39   40 1    
    76   39  105 1    
    77   40   41 1    
    78   40   42 1    
    79   40  106 1    
    80   41  107 1    
    81   41  108 1    
    82   41  109 1    
    83   42   43 2    
    84   42   44 am   BACKBONE|DICT|INTERRES
    85   44   45 1    
    86   44  110 1    
    87   45   46 1    
    88   45   47 1    
    89   45  111 1    
    90   46  112 1    
    91   46  113 1    
    92   46  114 1    
    93   47   48 2    
    94   47   49 am   BACKBONE|DICT|INTERRES
    95   49   50 1    
    96   49  115 1    
    97   50   51 1    
    98   50   52 1    
    99   50  116 1    
   100   51  117 1    
   101   51  118 1    
   102   51  119 1    
   103   52   53 2    
   104   52   54 am   BACKBONE|DICT|INTERRES
   105   54   55 1    
   106   54  120 1    
   107   55   56 1    
   108   55   57 1    
   109   55  121 1    
   110   56  122 1    
   111   56  123 1    
   112   56  124 1    
   113   57   58 2    
   114   57   59 am   BACKBONE|DICT|INTERRES
   115   59   60 1    
   116   59  125 1    
   117   60   61 1    
   118   60   62 1    
   119   60  126 1    
   120   61  127 1    
   121   61  128 1    
   122   61  129 1    
   123   62   63 2    
   124   62   64 am   BACKBONE|DICT|INTERRES
   125   64   65 1    
   126   64  130 1    
   127   65   66 1    
   128   65   69 1    
   129   65  131 1    
   130   66   67 am   BACKBONE|DICT|INTERRES
   131   66   68 2    
   132   67  132 1    
   133   67  133 1    
   134   69   70 1    
   135   69  134 1    
   136   69  135 1    
   137   70   71 1    
   138   71  136 1    
   139   71  137 1    
@<TRIPOS>SUBSTRUCTURE
     1 UNK         1 GROUP             0       ****    0 ROOT    
