@<TRIPOS>MOLECULE
3R136
137   139    1
SMALL
USER_CHARGES


@<TRIPOS>ATOM
      1 CA         27.8026   18.0895    2.7706 C.3       0 UNK        -0.1979 
      2 C          27.5074   19.3335    1.9458 C.2       0 UNK         0.4864 
      3 O          26.4201   19.4478    1.3787 O.2       0 UNK        -0.5359 
      4 N          28.4665   20.2664    1.8755 N.am      1 UNK        -0.4318 
      5 CA         28.3580   21.5321    1.1383 C.3       1 UNK         0.0824 
      6 C6         29.7522   22.1440    0.8428 C.3       12 UNK        -0.0944 
      7 S7         30.7522   22.4704    2.3397 S.3       12 UNK        -0.2672 
      8 C8         30.6046   24.2781    2.4999 C.3       12 UNK         0.0333 
      9 C9         31.6846   25.0067    1.7148 C.ar      12 UNK        -0.0807 
     10 C10        32.9030   25.3135    2.3268 C.ar      12 UNK        -0.0894 
     11 C11        33.8887   26.0231    1.6341 C.ar      12 UNK        -0.0804 
     12 C12        33.6559   26.4127    0.3125 C.ar      12 UNK        -0.0824 
     13 C13        32.4429   26.1077   -0.3123 C.ar      12 UNK        -0.0762 
     14 C14        31.4625   25.4005    0.3921 C.ar      12 UNK        -0.0782 
     15 C15        32.1900   26.5547   -1.7452 C.3       12 UNK         0.0230 
     16 S16        31.8316   28.3378   -1.8396 S.3       12 UNK        -0.2608 
     17 C17        30.2045   28.4250   -1.0186 C.3       12 UNK        -0.0989 
     18 CA         29.0460   28.6992   -2.0169 C.3       5 UNK         0.0716 
     19 N          27.7842   28.1454   -1.5394 N.am      5 UNK        -0.4135 
     20 C          27.4696   26.8477   -1.5208 C.2       4 UNK         0.5031 
     21 O          28.2050   25.9573   -1.9526 O.2       4 UNK        -0.5229 
     22 CA         26.1374   26.4825   -0.8479 C.3       4 UNK         0.0329 
     23 CB         25.5274   25.1918   -1.4244 C.3       4 UNK        -0.2001 
     24 N          26.3501   26.3170    0.5908 N.am      4 UNK        -0.4303 
     25 C          26.4261   27.3313    1.4679 C.2       3 UNK         0.5044 
     26 O          26.2560   28.5088    1.1485 O.2       3 UNK        -0.5152 
     27 CA         26.7277   26.9827    2.9373 C.3       3 UNK         0.0319 
     28 CB         26.1141   27.9874    3.9305 C.3       3 UNK        -0.2001 
     29 N          26.2628   25.6337    3.2540 N.am      3 UNK        -0.4354 
     30 C          26.9463   24.7266    3.9591 C.2       2 UNK         0.4964 
     31 O          28.0060   24.9598    4.5406 O.2       2 UNK        -0.5047 
     32 CA         26.3800   23.2944    3.9848 C.3       2 UNK         0.0288 
     33 CB         24.8763   23.2000    3.6346 C.3       2 UNK        -0.2113 
     34 N          27.1681   22.4062    3.1218 N.am      2 UNK        -0.4145 
     35 C          27.4192   22.5601    1.8096 C.2       1 UNK         0.5006 
     36 O          26.9617   23.4804    1.1285 O.2       1 UNK        -0.5103 
     37 C          28.8668   30.2071   -2.2526 C.2       5 UNK         0.5055 
     38 O          27.8787   30.7921   -1.7993 O.2       5 UNK        -0.5220 
     39 N          29.8619   30.8143   -2.9114 N.am      6 UNK        -0.4450 
     40 CA         30.0772   32.2638   -2.9165 C.3       6 UNK         0.0367 
     41 CB         30.9805   32.6410   -4.1017 C.3       6 UNK        -0.1929 
     42 C          30.6933   32.7508   -1.5888 C.2       6 UNK         0.5070 
     43 O          30.4998   33.9101   -1.2214 O.2       6 UNK        -0.5237 
     44 N          31.4171   31.8599   -0.8943 N.am      7 UNK        -0.4739 
     45 CA         31.9392   32.0637    0.4571 C.3       7 UNK         0.0276 
     46 CB         33.0159   30.9996    0.7365 C.3       7 UNK        -0.1927 
     47 C          30.8220   31.9793    1.5126 C.2       7 UNK         0.5013 
     48 O          29.7789   31.3687    1.2658 O.2       7 UNK        -0.5193 
     49 N          31.0782   32.5708    2.6850 N.am      8 UNK        -0.4253 
     50 CA         30.2033   32.4986    3.8570 C.3       8 UNK         0.0242 
     51 CB         30.6489   33.5678    4.8699 C.3       8 UNK        -0.2000 
     52 C          30.2305   31.1045    4.5079 C.2       8 UNK         0.4948 
     53 O          31.1909   30.3534    4.3213 O.2       8 UNK        -0.5275 
     54 N          29.2125   30.8174    5.3334 N.am      9 UNK        -0.4246 
     55 CA         29.0580   29.5729    6.1039 C.3       9 UNK         0.0261 
     56 CB         27.7530   29.6398    6.9138 C.3       9 UNK        -0.1959 
     57 C          30.2433   29.2411    7.0336 C.2       9 UNK         0.5033 
     58 O          30.4702   28.0669    7.3283 O.2       9 UNK        -0.5390 
     59 N          31.0072   30.2703    7.4305 N.am      10 UNK        -0.4215 
     60 CA         32.2704   30.1833    8.1689 C.3       10 UNK         0.0240 
     61 CB         32.7670   31.6066    8.4730 C.3       10 UNK        -0.1982 
     62 C          33.3744   29.3680    7.4633 C.2       10 UNK         0.4970 
     63 O          34.3025   28.9259    8.1419 O.2       10 UNK        -0.4916 
     64 N          33.2588   29.1616    6.1419 N.am      11 UNK        -0.4279 
     65 CA         34.0837   28.2160    5.3734 C.3       11 UNK         0.1003 
     66 C          33.9020   26.7300    5.8102 C.2       11 UNK         0.5709 
     67 N          32.7654   26.3383    6.3778 N.am      11 UNK        -0.7358 
     68 O          34.8164   25.9246    5.6617 O.2       11 UNK        -0.4999 
     69 C69        33.8534   28.3962    3.8466 C.3       12 UNK        -0.0954 
     70 S70        35.3356   28.1096    2.8178 S.3       12 UNK        -0.2268 
     71 C71        35.2076   26.3594    2.3146 C.3       12 UNK         0.0203 
     72 H72        27.0752   17.9917    3.5760 H         1 UNK         0.0888 
     73 H73        27.7389   17.2004    2.1438 H         1 UNK         0.0888 
     74 H74        28.7977   18.1206    3.2141 H         1 UNK         0.0888 
     75 H75        29.3443   20.1220    2.3559 H         1 UNK         0.3017 
     76 H76        27.9009   21.3032    0.1728 H         1 UNK         0.0873 
     77 H77        30.3202   21.4564    0.2143 H         1 UNK         0.0745 
     78 H78        29.6510   23.0536    0.2495 H         1 UNK         0.0745 
     79 H79        29.6145   24.6082    2.1822 H         1 UNK         0.0705 
     80 H80        30.6799   24.5400    3.5566 H         1 UNK         0.0705 
     81 H81        33.0787   25.0101    3.3501 H         1 UNK         0.1334 
     82 H82        34.4130   26.9672   -0.2253 H         1 UNK         0.1417 
     83 H83        30.5196   25.1726   -0.0865 H         1 UNK         0.1562 
     84 H84        31.3642   25.9957   -2.1892 H         1 UNK         0.0748 
     85 H85        33.0692   26.3373   -2.3533 H         1 UNK         0.0748 
     86 H86        30.2410   29.1731   -0.2244 H         1 UNK         0.0940 
     87 H87        30.0313   27.4888   -0.4929 H         1 UNK         0.0940 
     88 H88        29.2621   28.2330   -2.9810 H         1 UNK         0.0703 
     89 H89        27.1470   28.8330   -1.1519 H         1 UNK         0.3081 
     90 H90        25.4247   27.2921   -1.0211 H         1 UNK         0.0719 
     91 H91        26.1863   24.3330   -1.2908 H         1 UNK         0.0809 
     92 H92        24.5748   24.9573   -0.9494 H         1 UNK         0.0809 
     93 H93        25.3415   25.2947   -2.4941 H         1 UNK         0.0809 
     94 H94        26.5618   25.3711    0.9002 H         1 UNK         0.2990 
     95 H95        27.8146   27.0279    3.0349 H         1 UNK         0.0690 
     96 H96        26.5058   28.9921    3.7658 H         1 UNK         0.0788 
     97 H97        26.3467   27.7146    4.9598 H         1 UNK         0.0788 
     98 H98        25.0291   28.0362    3.8333 H         1 UNK         0.0788 
     99 H99        25.4079   25.3403    2.8011 H         1 UNK         0.2993 
    100 H100       26.5050   22.9353    5.0077 H         1 UNK         0.0949 
    101 H101       24.5091   22.1842    3.7821 H         1 UNK         0.0767 
    102 H102       24.2806   23.8498    4.2774 H         1 UNK         0.0767 
    103 H103       24.6675   23.4717    2.5994 H         1 UNK         0.0767 
    104 H104       27.6286   21.6391    3.5902 H         1 UNK         0.3013 
    105 H105       30.6192   30.2437   -3.2631 H         1 UNK         0.3121 
    106 H106       29.1154   32.7658   -3.0434 H         1 UNK         0.0774 
    107 H107       31.9623   32.1713   -4.0293 H         1 UNK         0.0815 
    108 H108       31.1379   33.7197   -4.1421 H         1 UNK         0.0815 
    109 H109       30.5342   32.3442   -5.0510 H         1 UNK         0.0815 
    110 H110       31.5027   30.9245   -1.2635 H         1 UNK         0.2987 
    111 H111       32.3957   33.0549    0.5062 H         1 UNK         0.0949 
    112 H112       32.5985   29.9914    0.7425 H         1 UNK         0.0806 
    113 H113       33.8102   31.0284   -0.0095 H         1 UNK         0.0806 
    114 H114       33.4824   31.1583    1.7095 H         1 UNK         0.0806 
    115 H115       31.9761   33.0111    2.8216 H         1 UNK         0.3010 
    116 H116       29.1807   32.7136    3.5386 H         1 UNK         0.0829 
    117 H117       30.6264   34.5648    4.4291 H         1 UNK         0.0813 
    118 H118       29.9908   33.5898    5.7395 H         1 UNK         0.0813 
    119 H119       31.6618   33.3849    5.2319 H         1 UNK         0.0813 
    120 H120       28.4757   31.5004    5.4408 H         1 UNK         0.3038 
    121 H121       28.9757   28.7557    5.3840 H         1 UNK         0.0769 
    122 H122       27.5764   28.7032    7.4448 H         1 UNK         0.0811 
    123 H123       27.7804   30.4362    7.6586 H         1 UNK         0.0811 
    124 H124       26.8900   29.8128    6.2710 H         1 UNK         0.0811 
    125 H125       30.7279   31.1928    7.1327 H         1 UNK         0.3204 
    126 H126       32.0589   29.6821    9.1156 H         1 UNK         0.0748 
    127 H127       33.6910   31.5832    9.0528 H         1 UNK         0.0771 
    128 H128       32.9703   32.1667    7.5591 H         1 UNK         0.0771 
    129 H129       32.0366   32.1672    9.0568 H         1 UNK         0.0771 
    130 H130       32.4773   29.5724    5.6401 H         1 UNK         0.2980 
    131 H131       35.1205   28.4791    5.5913 H         1 UNK         0.0545 
    132 H132       32.6709   25.3791    6.6694 H         1 UNK         0.3459 
    133 H133       32.0150   26.9947    6.5641 H         1 UNK         0.3459 
    134 H134       33.5803   29.4319    3.6415 H         1 UNK         0.0616 
    135 H135       33.0027   27.8132    3.4934 H         1 UNK         0.0616 
    136 H136       35.3687   25.7165    3.1789 H         1 UNK         0.0634 
    137 H137       36.0273   26.1395    1.6292 H         1 UNK         0.0634 
@<TRIPOS>BOND
     1    1    2 1    
     2    1   72 1    
     3    1   73 1    
     4    1   74 1    
     5    2    3 2    
     6    2    4 am   BACKBONE|DICT|INTERRES
     7    4    5 1    
     8    4   75 1    
     9    5    6 1    
    10    5   35 1    
    11    5   76 1    
    12    6    7 1    
    13    6   77 1    
    14    6   78 1    
    15    7    8 1    
    16    8    9 1    
    17    8   79 1    
    18    8   80 1    
    19    9   10 ar   
    20    9   14 ar   
    21   10   11 ar   
    22   10   81 1    
    23   11   12 ar   
    24   11   71 1    
    25   12   13 ar   
    26   12   82 1    
    27   13   14 ar   
    28   13   15 1    
    29   14   83 1    
    30   15   16 1    
    31   15   84 1    
    32   15   85 1    
    33   16   17 1    
    34   17   18 1    
    35   17   86 1    
    36   17   87 1    
    37   18   19 1    
    38   18   37 1    
    39   18   88 1    
    40   19   20 am   BACKBONE|DICT|INTERRES
    41   19   89 1    
    42   20   21 2    
    43   20   22 1    
    44   22   23 1    
    45   22   24 1    
    46   22   90 1    
    47   23   91 1    
    48   23   92 1    
    49   23   93 1    
    50   24   25 am   BACKBONE|DICT|INTERRES
    51   24   94 1    
    52   25   26 2    
    53   25   27 1    
    54   27   28 1    
    55   27   29 1    
    56   27   95 1    
    57   28   96 1    
    58   28   97 1    
    59   28   98 1    
    60   29   30 am   BACKBONE|DICT|INTERRES
    61   29   99 1    
    62   30   31 2    
    63   30   32 1    
    64   32   33 1    
    65   32   34 1    
    66   32  100 1    
    67   33  101 1    
    68   33  102 1    
    69   33  103 1    
    70   34   35 am   BACKBONE|DICT|INTERRES
    71   34  104 1    
    72   35   36 2    
    73   37   38 2    
    74   37   39 am   BACKBONE|DICT|INTERRES
    75   39   40 1    
    76   39  105 1    
    77   40   41 1    
    78   40   42 1    
    79   40  106 1    
    80   41  107 1    
    81   41  108 1    
    82   41  109 1    
    83   42   43 2    
    84   42   44 am   BACKBONE|DICT|INTERRES
    85   44   45 1    
    86   44  110 1    
    87   45   46 1    
    88   45   47 1    
    89   45  111 1    
    90   46  112 1    
    91   46  113 1    
    92   46  114 1    
    93   47   48 2    
    94   47   49 am   BACKBONE|DICT|INTERRES
    95   49   50 1    
    96   49  115 1    
    97   50   51 1    
    98   50   52 1    
    99   50  116 1    
   100   51  117 1    
   101   51  118 1    
   102   51  119 1    
   103   52   53 2    
   104   52   54 am   BACKBONE|DICT|INTERRES
   105   54   55 1    
   106   54  120 1    
   107   55   56 1    
   108   55   57 1    
   109   55  121 1    
   110   56  122 1    
   111   56  123 1    
   112   56  124 1    
   113   57   58 2    
   114   57   59 am   BACKBONE|DICT|INTERRES
   115   59   60 1    
   116   59  125 1    
   117   60   61 1    
   118   60   62 1    
   119   60  126 1    
   120   61  127 1    
   121   61  128 1    
   122   61  129 1    
   123   62   63 2    
   124   62   64 am   BACKBONE|DICT|INTERRES
   125   64   65 1    
   126   64  130 1    
   127   65   66 1    
   128   65   69 1    
   129   65  131 1    
   130   66   67 am   BACKBONE|DICT|INTERRES
   131   66   68 2    
   132   67  132 1    
   133   67  133 1    
   134   69   70 1    
   135   69  134 1    
   136   69  135 1    
   137   70   71 1    
   138   71  136 1    
   139   71  137 1    
@<TRIPOS>SUBSTRUCTURE
     1 UNK         1 GROUP             0       ****    0 ROOT    
