@<TRIPOS>MOLECULE
3R136
137   139    1
SMALL
USER_CHARGES


@<TRIPOS>ATOM
      1 CA         31.0881   23.1501   -4.1669 C.3       0 UNK        -0.1979 
      2 C          30.3739   24.2712   -3.4266 C.2       0 UNK         0.4864 
      3 O          29.9323   25.2342   -4.0545 O.2       0 UNK        -0.5359 
      4 N          30.2563   24.1518   -2.0970 N.am      1 UNK        -0.4318 
      5 CA         29.6282   25.1460   -1.2137 C.3       1 UNK         0.0824 
      6 C6         29.9952   24.9258    0.2773 C.3       12 UNK        -0.0944 
      7 S7         31.7766   24.6667    0.5736 S.3       12 UNK        -0.2672 
      8 C8         31.7389   23.3821    1.8672 C.3       12 UNK         0.0333 
      9 C9         31.2392   23.9375    3.1940 C.ar      12 UNK        -0.0807 
     10 C10        32.0820   24.7403    3.9680 C.ar      12 UNK        -0.0894 
     11 C11        31.6360   25.2999    5.1729 C.ar      12 UNK        -0.0804 
     12 C12        30.3384   25.0121    5.6068 C.ar      12 UNK        -0.0824 
     13 C13        29.4906   24.1894    4.8579 C.ar      12 UNK        -0.0762 
     14 C14        29.9464   23.6559    3.6481 C.ar      12 UNK        -0.0782 
     15 C15        28.0932   23.8677    5.3799 C.3       12 UNK         0.0230 
     16 S16        26.7474   24.4049    4.2709 S.3       12 UNK        -0.2608 
     17 C17        27.0915   26.1831    4.0402 C.3       12 UNK        -0.0989 
     18 CA         27.0897   26.5396    2.5295 C.3       5 UNK         0.0716 
     19 N          25.7563   26.4651    1.9173 N.am      5 UNK        -0.4135 
     20 C          24.7235   27.2939    2.1478 C.2       4 UNK         0.5031 
     21 O          24.7477   28.2093    2.9715 O.2       4 UNK        -0.5229 
     22 CA         23.4464   27.1059    1.3061 C.3       4 UNK         0.0329 
     23 CB         23.3818   28.1749    0.2019 C.3       4 UNK        -0.2001 
     24 N          23.3393   25.7855    0.6875 N.am      4 UNK        -0.4303 
     25 C          23.0643   24.6463    1.3378 C.2       3 UNK         0.5044 
     26 O          22.7609   24.5927    2.5298 O.2       3 UNK        -0.5152 
     27 CA         23.1650   23.3420    0.5214 C.3       3 UNK         0.0319 
     28 CB         21.7681   22.8716    0.0846 C.3       3 UNK        -0.2001 
     29 N          24.0325   23.4435   -0.6612 N.am      3 UNK        -0.4354 
     30 C          25.3468   23.7078   -0.6259 C.2       2 UNK         0.4964 
     31 O          25.9722   23.8675    0.4247 O.2       2 UNK        -0.5047 
     32 CA         26.0557   23.8291   -1.9897 C.3       2 UNK         0.0288 
     33 CB         25.3793   24.8762   -2.9034 C.3       2 UNK        -0.2113 
     34 N          27.4942   24.1002   -1.8619 N.am      2 UNK        -0.4145 
     35 C          28.0906   25.1964   -1.3623 C.2       1 UNK         0.5006 
     36 O          27.4853   26.2048   -0.9917 O.2       1 UNK        -0.5103 
     37 C          27.7799   27.8823    2.2032 C.2       5 UNK         0.5055 
     38 O          28.3019   28.5590    3.0922 O.2       5 UNK        -0.5220 
     39 N          27.7768   28.2411    0.9124 N.am      6 UNK        -0.4450 
     40 CA         28.3803   29.4507    0.3534 C.3       6 UNK         0.0367 
     41 CB         27.6391   29.8142   -0.9466 C.3       6 UNK        -0.1929 
     42 C          29.8953   29.2665    0.1446 C.2       6 UNK         0.5070 
     43 O          30.3942   29.3992   -0.9744 O.2       6 UNK        -0.5237 
     44 N          30.5958   28.9295    1.2312 N.am      7 UNK        -0.4739 
     45 CA         32.0438   28.7453    1.2763 C.3       7 UNK         0.0276 
     46 CB         32.3812   27.9054    2.5139 C.3       7 UNK        -0.1927 
     47 C          32.7798   30.0915    1.3310 C.2       7 UNK         0.5013 
     48 O          32.2010   31.0929    1.7653 O.2       7 UNK        -0.5193 
     49 N          34.0622   30.0770    0.9398 N.am      8 UNK        -0.4253 
     50 CA         34.9801   31.2193    0.9917 C.3       8 UNK         0.0242 
     51 CB         36.3579   30.7928    0.4583 C.3       8 UNK        -0.2000 
     52 C          35.0914   31.7800    2.4188 C.2       8 UNK         0.4948 
     53 O          35.5540   31.0687    3.3141 O.2       8 UNK        -0.5275 
     54 N          34.5820   33.0066    2.6091 N.am      9 UNK        -0.4246 
     55 CA         34.4330   33.7171    3.8876 C.3       9 UNK         0.0261 
     56 CB         35.8153   34.1544    4.4185 C.3       9 UNK        -0.1959 
     57 C          33.6216   32.9352    4.9451 C.2       9 UNK         0.5033 
     58 O          33.8599   33.1136    6.1411 O.2       9 UNK        -0.5390 
     59 N          32.7183   32.0461    4.4957 N.am      10 UNK        -0.4215 
     60 CA         31.9627   31.0740    5.2987 C.3       10 UNK         0.0240 
     61 CB         30.8878   31.7891    6.1446 C.3       10 UNK        -0.1982 
     62 C          32.8670   30.1430    6.1393 C.2       10 UNK         0.4970 
     63 O          32.4790   29.7519    7.2411 O.2       10 UNK        -0.4916 
     64 N          34.0617   29.8323    5.6133 N.am      11 UNK        -0.4279 
     65 CA         35.1600   29.1169    6.2857 C.3       11 UNK         0.1003 
     66 C          35.8685   29.9347    7.4103 C.2       11 UNK         0.5709 
     67 N          35.6118   31.2278    7.5746 N.am      11 UNK        -0.7358 
     68 O          36.7009   29.3945    8.1356 O.2       11 UNK        -0.4999 
     69 C69        34.7999   27.6722    6.7459 C.3       12 UNK        -0.0954 
     70 S70        34.1609   26.6144    5.4047 S.3       12 UNK        -0.2268 
     71 C71        32.4967   26.2187    6.0452 C.3       12 UNK         0.0203 
     72 H72        31.9579   23.5431   -4.6927 H         1 UNK         0.0888 
     73 H73        31.4275   22.3656   -3.4906 H         1 UNK         0.0888 
     74 H74        30.4205   22.6998   -4.9011 H         1 UNK         0.0888 
     75 H75        30.6704   23.3573   -1.6298 H         1 UNK         0.3017 
     76 H76        30.0060   26.1286   -1.5067 H         1 UNK         0.0873 
     77 H77        29.4418   24.0761    0.6822 H         1 UNK         0.0745 
     78 H78        29.6986   25.7940    0.8669 H         1 UNK         0.0745 
     79 H79        32.7475   22.9876    1.9991 H         1 UNK         0.0705 
     80 H80        31.1255   22.5423    1.5371 H         1 UNK         0.0705 
     81 H81        33.0774   24.9425    3.6004 H         1 UNK         0.1334 
     82 H82        29.9878   25.4317    6.5402 H         1 UNK         0.1417 
     83 H83        29.2902   23.0269    3.0619 H         1 UNK         0.1562 
     84 H84        27.9321   24.3207    6.3595 H         1 UNK         0.0748 
     85 H85        28.0131   22.7901    5.5285 H         1 UNK         0.0748 
     86 H86        28.0531   26.4231    4.4949 H         1 UNK         0.0940 
     87 H87        26.3518   26.7691    4.5873 H         1 UNK         0.0940 
     88 H88        27.6866   25.7836    2.0188 H         1 UNK         0.0703 
     89 H89        25.6416   25.7114    1.2481 H         1 UNK         0.3081 
     90 H90        22.5908   27.2442    1.9707 H         1 UNK         0.0719 
     91 H91        24.2142   28.0844   -0.4977 H         1 UNK         0.0809 
     92 H92        22.4541   28.1049   -0.3664 H         1 UNK         0.0809 
     93 H93        23.4233   29.1787    0.6274 H         1 UNK         0.0809 
     94 H94        23.5554   25.7267   -0.2965 H         1 UNK         0.2990 
     95 H95        23.5919   22.5826    1.1801 H         1 UNK         0.0690 
     96 H96        21.8124   21.9034   -0.4146 H         1 UNK         0.0788 
     97 H97        21.2973   23.5815   -0.5968 H         1 UNK         0.0788 
     98 H98        21.1072   22.7592    0.9454 H         1 UNK         0.0788 
     99 H99        23.5864   23.3125   -1.5581 H         1 UNK         0.2993 
    100 H100       25.9748   22.8535   -2.4718 H         1 UNK         0.0949 
    101 H101       25.9361   25.0062   -3.8316 H         1 UNK         0.0767 
    102 H102       24.3693   24.5733   -3.1804 H         1 UNK         0.0767 
    103 H103       25.3048   25.8525   -2.4229 H         1 UNK         0.0767 
    104 H104       28.0987   23.3284   -2.1038 H         1 UNK         0.3013 
    105 H105       27.4277   27.5689    0.2302 H         1 UNK         0.3121 
    106 H106       28.2461   30.2748    1.0575 H         1 UNK         0.0774 
    107 H107       28.0377   30.7319   -1.3808 H         1 UNK         0.0815 
    108 H108       27.7337   29.0281   -1.6971 H         1 UNK         0.0815 
    109 H109       26.5767   29.9770   -0.7646 H         1 UNK         0.0815 
    110 H110       30.0940   28.8669    2.1103 H         1 UNK         0.2987 
    111 H111       32.3562   28.2019    0.3815 H         1 UNK         0.0949 
    112 H112       33.4389   27.6406    2.5373 H         1 UNK         0.0806 
    113 H113       32.1531   28.4284    3.4423 H         1 UNK         0.0806 
    114 H114       31.8132   26.9774    2.5118 H         1 UNK         0.0806 
    115 H115       34.4614   29.2015    0.6339 H         1 UNK         0.3010 
    116 H116       34.5836   31.9936    0.3315 H         1 UNK         0.0829 
    117 H117       36.2965   30.4489   -0.5744 H         1 UNK         0.0813 
    118 H118       37.0590   31.6283    0.4793 H         1 UNK         0.0813 
    119 H119       36.7920   29.9896    1.0554 H         1 UNK         0.0813 
    120 H120       34.1862   33.4800    1.8079 H         1 UNK         0.3038 
    121 H121       33.8576   34.6191    3.6741 H         1 UNK         0.0769 
    122 H122       35.7153   34.8007    5.2915 H         1 UNK         0.0811 
    123 H123       36.3711   34.7142    3.6665 H         1 UNK         0.0811 
    124 H124       36.4218   33.2982    4.7163 H         1 UNK         0.0811 
    125 H125       32.6018   31.9487    3.4891 H         1 UNK         0.3204 
    126 H126       31.4434   30.4310    4.5871 H         1 UNK         0.0748 
    127 H127       30.2343   31.0689    6.6384 H         1 UNK         0.0771 
    128 H128       31.3327   32.4117    6.9215 H         1 UNK         0.0771 
    129 H129       30.2554   32.4254    5.5255 H         1 UNK         0.0771 
    130 H130       34.3238   30.2440    4.7237 H         1 UNK         0.2980 
    131 H131       35.9244   29.0164    5.5146 H         1 UNK         0.0545 
    132 H132       36.0951   31.7295    8.3018 H         1 UNK         0.3459 
    133 H133       34.9366   31.7169    6.9956 H         1 UNK         0.3459 
    134 H134       35.6863   27.1709    7.1380 H         1 UNK         0.0616 
    135 H135       34.0884   27.6982    7.5721 H         1 UNK         0.0616 
    136 H136       32.6083   25.7576    7.0276 H         1 UNK         0.0634 
    137 H137       31.9588   27.1553    6.1973 H         1 UNK         0.0634 
@<TRIPOS>BOND
     1    1    2 1    
     2    1   72 1    
     3    1   73 1    
     4    1   74 1    
     5    2    3 2    
     6    2    4 am   BACKBONE|DICT|INTERRES
     7    4    5 1    
     8    4   75 1    
     9    5    6 1    
    10    5   35 1    
    11    5   76 1    
    12    6    7 1    
    13    6   77 1    
    14    6   78 1    
    15    7    8 1    
    16    8    9 1    
    17    8   79 1    
    18    8   80 1    
    19    9   10 ar   
    20    9   14 ar   
    21   10   11 ar   
    22   10   81 1    
    23   11   12 ar   
    24   11   71 1    
    25   12   13 ar   
    26   12   82 1    
    27   13   14 ar   
    28   13   15 1    
    29   14   83 1    
    30   15   16 1    
    31   15   84 1    
    32   15   85 1    
    33   16   17 1    
    34   17   18 1    
    35   17   86 1    
    36   17   87 1    
    37   18   19 1    
    38   18   37 1    
    39   18   88 1    
    40   19   20 am   BACKBONE|DICT|INTERRES
    41   19   89 1    
    42   20   21 2    
    43   20   22 1    
    44   22   23 1    
    45   22   24 1    
    46   22   90 1    
    47   23   91 1    
    48   23   92 1    
    49   23   93 1    
    50   24   25 am   BACKBONE|DICT|INTERRES
    51   24   94 1    
    52   25   26 2    
    53   25   27 1    
    54   27   28 1    
    55   27   29 1    
    56   27   95 1    
    57   28   96 1    
    58   28   97 1    
    59   28   98 1    
    60   29   30 am   BACKBONE|DICT|INTERRES
    61   29   99 1    
    62   30   31 2    
    63   30   32 1    
    64   32   33 1    
    65   32   34 1    
    66   32  100 1    
    67   33  101 1    
    68   33  102 1    
    69   33  103 1    
    70   34   35 am   BACKBONE|DICT|INTERRES
    71   34  104 1    
    72   35   36 2    
    73   37   38 2    
    74   37   39 am   BACKBONE|DICT|INTERRES
    75   39   40 1    
    76   39  105 1    
    77   40   41 1    
    78   40   42 1    
    79   40  106 1    
    80   41  107 1    
    81   41  108 1    
    82   41  109 1    
    83   42   43 2    
    84   42   44 am   BACKBONE|DICT|INTERRES
    85   44   45 1    
    86   44  110 1    
    87   45   46 1    
    88   45   47 1    
    89   45  111 1    
    90   46  112 1    
    91   46  113 1    
    92   46  114 1    
    93   47   48 2    
    94   47   49 am   BACKBONE|DICT|INTERRES
    95   49   50 1    
    96   49  115 1    
    97   50   51 1    
    98   50   52 1    
    99   50  116 1    
   100   51  117 1    
   101   51  118 1    
   102   51  119 1    
   103   52   53 2    
   104   52   54 am   BACKBONE|DICT|INTERRES
   105   54   55 1    
   106   54  120 1    
   107   55   56 1    
   108   55   57 1    
   109   55  121 1    
   110   56  122 1    
   111   56  123 1    
   112   56  124 1    
   113   57   58 2    
   114   57   59 am   BACKBONE|DICT|INTERRES
   115   59   60 1    
   116   59  125 1    
   117   60   61 1    
   118   60   62 1    
   119   60  126 1    
   120   61  127 1    
   121   61  128 1    
   122   61  129 1    
   123   62   63 2    
   124   62   64 am   BACKBONE|DICT|INTERRES
   125   64   65 1    
   126   64  130 1    
   127   65   66 1    
   128   65   69 1    
   129   65  131 1    
   130   66   67 am   BACKBONE|DICT|INTERRES
   131   66   68 2    
   132   67  132 1    
   133   67  133 1    
   134   69   70 1    
   135   69  134 1    
   136   69  135 1    
   137   70   71 1    
   138   71  136 1    
   139   71  137 1    
@<TRIPOS>SUBSTRUCTURE
     1 UNK         1 GROUP             0       ****    0 ROOT    
