@<TRIPOS>MOLECULE
3R136
137   139    1
SMALL
USER_CHARGES


@<TRIPOS>ATOM
      1 CA         27.4711   19.8167    3.3436 C.3       0 UNK        -0.1979 
      2 C          27.8418   20.2726    1.9404 C.2       0 UNK         0.4864 
      3 O          27.1372   21.1100    1.3748 O.2       0 UNK        -0.5359 
      4 N          28.9438   19.7310    1.3940 N.am      1 UNK        -0.4318 
      5 CA         29.5248   19.9968    0.0670 C.3       1 UNK         0.0824 
      6 C6         30.5093   21.2097    0.0361 C.3       12 UNK        -0.0944 
      7 S7         29.8376   22.8343    0.5503 S.3       12 UNK        -0.2672 
      8 C8         30.4558   22.8859    2.2626 C.3       12 UNK         0.0333 
      9 C9         29.9148   24.0653    3.0575 C.ar      12 UNK        -0.0807 
     10 C10        30.7886   25.0414    3.5471 C.ar      12 UNK        -0.0894 
     11 C11        30.3135   26.0781    4.3554 C.ar      12 UNK        -0.0804 
     12 C12        28.9535   26.1378    4.6705 C.ar      12 UNK        -0.0824 
     13 C13        28.0643   25.1869    4.1619 C.ar      12 UNK        -0.0762 
     14 C14        28.5516   24.1476    3.3616 C.ar      12 UNK        -0.0782 
     15 C15        26.5814   25.2711    4.4918 C.3       12 UNK         0.0230 
     16 S16        25.6101   25.8964    3.0857 S.3       12 UNK        -0.2608 
     17 C17        25.9508   27.6952    3.1112 C.3       12 UNK        -0.0989 
     18 CA         27.1917   28.1211    2.2776 C.3       5 UNK         0.0716 
     19 N          27.2040   27.5028    0.9520 N.am      5 UNK        -0.4135 
     20 C          28.2888   27.2418    0.2147 C.2       4 UNK         0.5031 
     21 O          29.4216   27.6226    0.5147 O.2       4 UNK        -0.5229 
     22 CA         28.0634   26.3970   -1.0535 C.3       4 UNK         0.0329 
     23 CB         29.3798   26.0377   -1.7677 C.3       4 UNK        -0.2001 
     24 N          27.3395   25.1600   -0.7492 N.am      4 UNK        -0.4303 
     25 C          26.0133   25.0507   -0.5864 C.2       3 UNK         0.5044 
     26 O          25.2435   26.0105   -0.6658 O.2       3 UNK        -0.5152 
     27 CA         25.4730   23.6441   -0.2605 C.3       3 UNK         0.0319 
     28 CB         23.9507   23.5138   -0.4778 C.3       3 UNK        -0.2001 
     29 N          26.2032   22.5803   -0.9612 N.am      3 UNK        -0.4354 
     30 C          26.3239   22.4179   -2.2912 C.2       2 UNK         0.4964 
     31 O          25.7391   23.1178   -3.1193 O.2       2 UNK        -0.5047 
     32 CA         27.2855   21.3187   -2.7836 C.3       2 UNK         0.0288 
     33 CB         27.9506   21.6873   -4.1239 C.3       2 UNK        -0.2113 
     34 N          28.3337   21.0739   -1.7934 N.am      2 UNK        -0.4145 
     35 C          28.4686   19.9643   -1.0610 C.2       1 UNK         0.5006 
     36 O          27.7949   18.9442   -1.2264 O.2       1 UNK        -0.5103 
     37 C          27.3534   29.6523    2.1729 C.2       5 UNK         0.5055 
     38 O          26.4372   30.4037    2.5103 O.2       5 UNK        -0.5220 
     39 N          28.5198   30.0842    1.6802 N.am      6 UNK        -0.4450 
     40 CA         28.8810   31.4773    1.3986 C.3       6 UNK         0.0367 
     41 CB         30.0098   31.4734    0.3528 C.3       6 UNK        -0.1929 
     42 C          29.2770   32.3073    2.6393 C.2       6 UNK         0.5070 
     43 O          29.6462   33.4702    2.4739 O.2       6 UNK        -0.5237 
     44 N          29.1989   31.7019    3.8338 N.am      7 UNK        -0.4739 
     45 CA         29.6761   32.1552    5.1488 C.3       7 UNK         0.0276 
     46 CB         29.2766   33.6093    5.4725 C.3       7 UNK        -0.1927 
     47 C          31.1876   31.9287    5.3041 C.2       7 UNK         0.5013 
     48 O          31.9221   31.9196    4.3130 O.2       7 UNK        -0.5193 
     49 N          31.6236   31.7200    6.5550 N.am      8 UNK        -0.4253 
     50 CA         32.9599   31.2367    6.9345 C.3       8 UNK         0.0242 
     51 CB         33.0417   31.1260    8.4655 C.3       8 UNK        -0.2000 
     52 C          34.1489   32.0505    6.3936 C.2       8 UNK         0.4948 
     53 O          35.2209   31.4804    6.1910 O.2       8 UNK        -0.5275 
     54 N          33.9358   33.3461    6.1289 N.am      9 UNK        -0.4246 
     55 CA         34.8979   34.2310    5.4682 C.3       9 UNK         0.0261 
     56 CB         34.3870   35.6787    5.5535 C.3       9 UNK        -0.1959 
     57 C          35.1913   33.8511    4.0020 C.2       9 UNK         0.5033 
     58 O          36.2519   34.2240    3.4973 O.2       9 UNK        -0.5390 
     59 N          34.2639   33.1378    3.3478 N.am      10 UNK        -0.4215 
     60 CA         34.3702   32.6860    1.9629 C.3       10 UNK         0.0240 
     61 CB         33.1525   33.1860    1.1697 C.3       10 UNK        -0.1982 
     62 C          34.4948   31.1582    1.8801 C.2       10 UNK         0.4970 
     63 O          35.4251   30.6792    1.2304 O.2       10 UNK        -0.4916 
     64 N          33.5733   30.4180    2.5162 N.am      11 UNK        -0.4279 
     65 CA         33.5521   28.9429    2.4846 C.3       11 UNK         0.1003 
     66 C          34.5022   28.2457    3.5003 C.2       11 UNK         0.5709 
     67 N          35.1419   28.9554    4.4216 N.am      11 UNK        -0.7358 
     68 O          34.6804   27.0316    3.4372 O.2       11 UNK        -0.4999 
     69 C69        32.1119   28.3602    2.5011 C.3       12 UNK        -0.0954 
     70 S70        31.1557   28.6968    4.0165 S.3       12 UNK        -0.2268 
     71 C71        31.2685   27.1204    4.9160 C.3       12 UNK         0.0203 
     72 H72        26.4756   19.3738    3.3421 H         1 UNK         0.0888 
     73 H73        28.1714   19.0779    3.7328 H         1 UNK         0.0888 
     74 H74        27.4645   20.6688    4.0227 H         1 UNK         0.0888 
     75 H75        29.4372   19.0288    1.9270 H         1 UNK         0.3017 
     76 H76        30.1396   19.1186   -0.1376 H         1 UNK         0.0873 
     77 H77        30.9416   21.3211   -0.9601 H         1 UNK         0.0745 
     78 H78        31.3641   20.9769    0.6729 H         1 UNK         0.0745 
     79 H79        30.1799   21.9655    2.7778 H         1 UNK         0.0705 
     80 H80        31.5465   22.9068    2.2393 H         1 UNK         0.0705 
     81 H81        31.8443   24.9837    3.3186 H         1 UNK         0.1334 
     82 H82        28.5865   26.9377    5.2990 H         1 UNK         0.1417 
     83 H83        27.8715   23.3982    2.9782 H         1 UNK         0.1562 
     84 H84        26.4071   25.8965    5.3687 H         1 UNK         0.0748 
     85 H85        26.2168   24.2764    4.7523 H         1 UNK         0.0748 
     86 H86        26.0553   28.0282    4.1453 H         1 UNK         0.0940 
     87 H87        25.0536   28.1865    2.7294 H         1 UNK         0.0940 
     88 H88        28.0754   27.7661    2.8061 H         1 UNK         0.0703 
     89 H89        26.3136   27.1547    0.6121 H         1 UNK         0.3081 
     90 H90        27.4644   26.9980   -1.7409 H         1 UNK         0.0719 
     91 H91        29.9189   26.9373   -2.0675 H         1 UNK         0.0809 
     92 H92        30.0439   25.4608   -1.1227 H         1 UNK         0.0809 
     93 H93        29.1967   25.4546   -2.6704 H         1 UNK         0.0809 
     94 H94        27.9061   24.3381   -0.5948 H         1 UNK         0.2990 
     95 H95        25.6657   23.4902    0.8025 H         1 UNK         0.0690 
     96 H96        23.5992   22.5132   -0.2264 H         1 UNK         0.0788 
     97 H97        23.6679   23.7212   -1.5102 H         1 UNK         0.0788 
     98 H98        23.4064   24.2159    0.1551 H         1 UNK         0.0788 
     99 H99        26.6980   21.9409   -0.3422 H         1 UNK         0.2993 
    100 H100       26.6825   20.4211   -2.9363 H         1 UNK         0.0949 
    101 H101       28.5127   22.6194   -4.0517 H         1 UNK         0.0767 
    102 H102       28.6368   20.9065   -4.4524 H         1 UNK         0.0767 
    103 H103       27.2068   21.8126   -4.9119 H         1 UNK         0.0767 
    104 H104       28.9134   21.8655   -1.5462 H         1 UNK         0.3013 
    105 H105       29.1863   29.3713    1.3935 H         1 UNK         0.3121 
    106 H106       28.0130   31.9702    0.9559 H         1 UNK         0.0774 
    107 H107       30.9141   31.0036    0.7409 H         1 UNK         0.0815 
    108 H108       29.7145   30.9366   -0.5489 H         1 UNK         0.0815 
    109 H109       30.2705   32.4883    0.0499 H         1 UNK         0.0815 
    110 H110       28.9064   30.7359    3.8088 H         1 UNK         0.2987 
    111 H111       29.1758   31.5063    5.8696 H         1 UNK         0.0949 
    112 H112       28.2179   33.7835    5.2808 H         1 UNK         0.0806 
    113 H113       29.4569   33.8373    6.5235 H         1 UNK         0.0806 
    114 H114       29.8484   34.3313    4.8886 H         1 UNK         0.0806 
    115 H115       30.9501   31.7743    7.3058 H         1 UNK         0.3010 
    116 H116       33.0571   30.2317    6.5175 H         1 UNK         0.0829 
    117 H117       32.9005   32.0940    8.9480 H         1 UNK         0.0813 
    118 H118       34.0148   30.7446    8.7788 H         1 UNK         0.0813 
    119 H119       32.2890   30.4410    8.8563 H         1 UNK         0.0813 
    120 H120       33.0216   33.7274    6.3246 H         1 UNK         0.3038 
    121 H121       35.8409   34.1671    6.0154 H         1 UNK         0.0769 
    122 H122       34.2525   35.9931    6.5887 H         1 UNK         0.0811 
    123 H123       33.4343   35.8017    5.0366 H         1 UNK         0.0811 
    124 H124       35.0966   36.3703    5.0969 H         1 UNK         0.0811 
    125 H125       33.4264   32.8406    3.8463 H         1 UNK         0.3204 
    126 H126       35.2618   33.1069    1.4931 H         1 UNK         0.0748 
    127 H127       32.2175   32.8871    1.6424 H         1 UNK         0.0771 
    128 H128       33.1508   34.2736    1.0980 H         1 UNK         0.0771 
    129 H129       33.1520   32.7923    0.1523 H         1 UNK         0.0771 
    130 H130       32.8551   30.8700    3.0772 H         1 UNK         0.2980 
    131 H131       33.9525   28.6470    1.5130 H         1 UNK         0.0545 
    132 H132       35.7592   28.4805    5.0601 H         1 UNK         0.3459 
    133 H133       35.0134   29.9528    4.5060 H         1 UNK         0.3459 
    134 H134       32.1321   27.2859    2.3143 H         1 UNK         0.0616 
    135 H135       31.5516   28.7817    1.6666 H         1 UNK         0.0616 
    136 H136       31.0274   27.3022    5.9642 H         1 UNK         0.0634 
    137 H137       32.2964   26.7565    4.9016 H         1 UNK         0.0634 
@<TRIPOS>BOND
     1    1    2 1    
     2    1   72 1    
     3    1   73 1    
     4    1   74 1    
     5    2    3 2    
     6    2    4 am   BACKBONE|DICT|INTERRES
     7    4    5 1    
     8    4   75 1    
     9    5    6 1    
    10    5   35 1    
    11    5   76 1    
    12    6    7 1    
    13    6   77 1    
    14    6   78 1    
    15    7    8 1    
    16    8    9 1    
    17    8   79 1    
    18    8   80 1    
    19    9   10 ar   
    20    9   14 ar   
    21   10   11 ar   
    22   10   81 1    
    23   11   12 ar   
    24   11   71 1    
    25   12   13 ar   
    26   12   82 1    
    27   13   14 ar   
    28   13   15 1    
    29   14   83 1    
    30   15   16 1    
    31   15   84 1    
    32   15   85 1    
    33   16   17 1    
    34   17   18 1    
    35   17   86 1    
    36   17   87 1    
    37   18   19 1    
    38   18   37 1    
    39   18   88 1    
    40   19   20 am   BACKBONE|DICT|INTERRES
    41   19   89 1    
    42   20   21 2    
    43   20   22 1    
    44   22   23 1    
    45   22   24 1    
    46   22   90 1    
    47   23   91 1    
    48   23   92 1    
    49   23   93 1    
    50   24   25 am   BACKBONE|DICT|INTERRES
    51   24   94 1    
    52   25   26 2    
    53   25   27 1    
    54   27   28 1    
    55   27   29 1    
    56   27   95 1    
    57   28   96 1    
    58   28   97 1    
    59   28   98 1    
    60   29   30 am   BACKBONE|DICT|INTERRES
    61   29   99 1    
    62   30   31 2    
    63   30   32 1    
    64   32   33 1    
    65   32   34 1    
    66   32  100 1    
    67   33  101 1    
    68   33  102 1    
    69   33  103 1    
    70   34   35 am   BACKBONE|DICT|INTERRES
    71   34  104 1    
    72   35   36 2    
    73   37   38 2    
    74   37   39 am   BACKBONE|DICT|INTERRES
    75   39   40 1    
    76   39  105 1    
    77   40   41 1    
    78   40   42 1    
    79   40  106 1    
    80   41  107 1    
    81   41  108 1    
    82   41  109 1    
    83   42   43 2    
    84   42   44 am   BACKBONE|DICT|INTERRES
    85   44   45 1    
    86   44  110 1    
    87   45   46 1    
    88   45   47 1    
    89   45  111 1    
    90   46  112 1    
    91   46  113 1    
    92   46  114 1    
    93   47   48 2    
    94   47   49 am   BACKBONE|DICT|INTERRES
    95   49   50 1    
    96   49  115 1    
    97   50   51 1    
    98   50   52 1    
    99   50  116 1    
   100   51  117 1    
   101   51  118 1    
   102   51  119 1    
   103   52   53 2    
   104   52   54 am   BACKBONE|DICT|INTERRES
   105   54   55 1    
   106   54  120 1    
   107   55   56 1    
   108   55   57 1    
   109   55  121 1    
   110   56  122 1    
   111   56  123 1    
   112   56  124 1    
   113   57   58 2    
   114   57   59 am   BACKBONE|DICT|INTERRES
   115   59   60 1    
   116   59  125 1    
   117   60   61 1    
   118   60   62 1    
   119   60  126 1    
   120   61  127 1    
   121   61  128 1    
   122   61  129 1    
   123   62   63 2    
   124   62   64 am   BACKBONE|DICT|INTERRES
   125   64   65 1    
   126   64  130 1    
   127   65   66 1    
   128   65   69 1    
   129   65  131 1    
   130   66   67 am   BACKBONE|DICT|INTERRES
   131   66   68 2    
   132   67  132 1    
   133   67  133 1    
   134   69   70 1    
   135   69  134 1    
   136   69  135 1    
   137   70   71 1    
   138   71  136 1    
   139   71  137 1    
@<TRIPOS>SUBSTRUCTURE
     1 UNK         1 GROUP             0       ****    0 ROOT    
