@<TRIPOS>MOLECULE
3R136
137   139    1
SMALL
USER_CHARGES


@<TRIPOS>ATOM
      1 CA         25.8011   23.6941    5.1172 C.3       0 UNK        -0.1979 
      2 C          26.4855   23.9428    3.7822 C.2       0 UNK         0.4864 
      3 O          26.0596   24.8248    3.0345 O.2       0 UNK        -0.5359 
      4 N          27.5525   23.1848    3.4825 N.am      1 UNK        -0.4318 
      5 CA         28.3231   23.2688    2.2329 C.3       1 UNK         0.0824 
      6 C6         29.3987   22.1539    2.1315 C.3       12 UNK        -0.0944 
      7 S7         29.6265   21.5699    0.4174 S.3       12 UNK        -0.2672 
      8 C8         31.4315   21.3357    0.3164 C.3       12 UNK         0.0333 
      9 C9         32.1716   22.6557    0.1564 C.ar      12 UNK        -0.0807 
     10 C10        32.9605   23.1588    1.1935 C.ar      12 UNK        -0.0894 
     11 C11        33.6324   24.3760    1.0464 C.ar      12 UNK        -0.0804 
     12 C12        33.4954   25.0986   -0.1435 C.ar      12 UNK        -0.0824 
     13 C13        32.7144   24.6069   -1.1951 C.ar      12 UNK        -0.0762 
     14 C14        32.0771   23.3679   -1.0423 C.ar      12 UNK        -0.0782 
     15 C15        32.5760   25.4438   -2.4722 C.3       12 UNK         0.0230 
     16 S16        31.0231   25.1967   -3.4123 S.3       12 UNK        -0.2608 
     17 C17        29.7693   25.4105   -2.1045 C.3       12 UNK        -0.0989 
     18 CA         28.7535   26.5531   -2.3343 C.3       5 UNK         0.0716 
     19 N          27.6973   26.4803   -1.3281 N.am      5 UNK        -0.4135 
     20 C          26.4019   26.7245   -1.5521 C.2       4 UNK         0.5031 
     21 O          25.9523   27.1487   -2.6175 O.2       4 UNK        -0.5229 
     22 CA         25.4344   26.4020   -0.4001 C.3       4 UNK         0.0329 
     23 CB         25.1569   24.8911   -0.3364 C.3       4 UNK        -0.2001 
     24 N          25.9130   26.8602    0.9048 N.am      4 UNK        -0.4303 
     25 C          25.9955   28.1476    1.2659 C.2       3 UNK         0.5044 
     26 O          25.6793   29.0861    0.5355 O.2       3 UNK        -0.5152 
     27 CA         26.5171   28.4403    2.6798 C.3       3 UNK         0.0319 
     28 CB         25.3908   28.3104    3.7172 C.3       3 UNK        -0.2001 
     29 N          27.6265   27.5631    3.0490 N.am      3 UNK        -0.4354 
     30 C          28.8806   27.7136    2.6036 C.2       2 UNK         0.4964 
     31 O          29.2321   28.6033    1.8310 O.2       2 UNK        -0.5047 
     32 CA         29.9161   26.6824    3.0805 C.3       2 UNK         0.0288 
     33 CB         30.3970   27.0470    4.4937 C.3       2 UNK        -0.2113 
     34 N          29.4127   25.3062    3.0740 N.am      2 UNK        -0.4145 
     35 C          28.9196   24.6717    1.9985 C.2       1 UNK         0.5006 
     36 O          28.8491   25.1786    0.8799 O.2       1 UNK        -0.5103 
     37 C          29.4121   27.9438   -2.3312 C.2       5 UNK         0.5055 
     38 O          29.3149   28.6644   -3.3261 O.2       5 UNK        -0.5220 
     39 N          30.0959   28.2851   -1.2299 N.am      6 UNK        -0.4450 
     40 CA         30.9370   29.4817   -1.1279 C.3       6 UNK         0.0367 
     41 CB         32.0419   29.2292   -0.0863 C.3       6 UNK        -0.1929 
     42 C          30.1582   30.7643   -0.7884 C.2       6 UNK         0.5070 
     43 O          30.6965   31.8533   -0.9900 O.2       6 UNK        -0.5237 
     44 N          28.9354   30.6161   -0.2564 N.am      7 UNK        -0.4739 
     45 CA         28.0925   31.6611    0.3414 C.3       7 UNK         0.0276 
     46 CB         27.6444   32.6965   -0.7122 C.3       7 UNK        -0.1927 
     47 C          28.7506   32.2945    1.5846 C.2       7 UNK         0.5013 
     48 O          28.6389   33.5038    1.7965 O.2       7 UNK        -0.5193 
     49 N          29.4369   31.4588    2.3732 N.am      8 UNK        -0.4253 
     50 CA         30.1712   31.8312    3.5793 C.3       8 UNK         0.0242 
     51 CB         31.5964   31.2634    3.4638 C.3       8 UNK        -0.2000 
     52 C          29.4723   31.2616    4.8205 C.2       8 UNK         0.4948 
     53 O          28.7001   30.3078    4.7129 O.2       8 UNK        -0.5275 
     54 N          29.7858   31.8316    5.9916 N.am      9 UNK        -0.4246 
     55 CA         29.3116   31.3423    7.2920 C.3       9 UNK         0.0261 
     56 CB         29.5615   32.4146    8.3652 C.3       9 UNK        -0.1959 
     57 C          29.9602   30.0064    7.7023 C.2       9 UNK         0.5033 
     58 O          29.3195   29.2061    8.3852 O.2       9 UNK        -0.5390 
     59 N          31.2089   29.7926    7.2740 N.am      10 UNK        -0.4215 
     60 CA         32.0035   28.5854    7.4637 C.3       10 UNK         0.0240 
     61 CB         32.5635   28.5295    8.8978 C.3       10 UNK        -0.1982 
     62 C          33.1373   28.6102    6.4327 C.2       10 UNK         0.4970 
     63 O          33.5114   29.6913    5.9693 O.2       10 UNK        -0.4916 
     64 N          33.6631   27.4278    6.0996 N.am      11 UNK        -0.4279 
     65 CA         34.8311   27.2559    5.2240 C.3       11 UNK         0.1003 
     66 C          36.1396   27.7629    5.8911 C.2       11 UNK         0.5709 
     67 N          37.0612   28.3122    5.1118 N.am      11 UNK        -0.7358 
     68 O          36.3424   27.6255    7.0966 O.2       11 UNK        -0.4999 
     69 C69        34.9806   25.7803    4.7752 C.3       12 UNK        -0.0954 
     70 S70        33.6180   25.2496    3.6844 S.3       12 UNK        -0.2268 
     71 C71        34.5373   24.8880    2.1576 C.3       12 UNK         0.0203 
     72 H72        25.8164   24.6013    5.7204 H         1 UNK         0.0888 
     73 H73        24.7617   23.4100    4.9558 H         1 UNK         0.0888 
     74 H74        26.2866   22.9000    5.6840 H         1 UNK         0.0888 
     75 H75        27.8520   22.4778    4.1390 H         1 UNK         0.3017 
     76 H76        27.5910   23.1090    1.4383 H         1 UNK         0.0873 
     77 H77        29.0952   21.2798    2.7098 H         1 UNK         0.0745 
     78 H78        30.3516   22.4718    2.5595 H         1 UNK         0.0745 
     79 H79        31.6538   20.6989   -0.5412 H         1 UNK         0.0705 
     80 H80        31.7785   20.7922    1.1967 H         1 UNK         0.0705 
     81 H81        33.0580   22.6039    2.1167 H         1 UNK         0.1334 
     82 H82        34.0074   26.0447   -0.2557 H         1 UNK         0.1417 
     83 H83        31.4763   22.9620   -1.8441 H         1 UNK         0.1562 
     84 H84        33.4186   25.2210   -3.1279 H         1 UNK         0.0748 
     85 H85        32.6485   26.5045   -2.2261 H         1 UNK         0.0748 
     86 H86        30.2649   25.5436   -1.1441 H         1 UNK         0.0940 
     87 H87        29.2358   24.4617   -2.0214 H         1 UNK         0.0940 
     88 H88        28.3120   26.4009   -3.3219 H         1 UNK         0.0703 
     89 H89        27.9769   26.1069   -0.4224 H         1 UNK         0.3081 
     90 H90        24.4900   26.9097   -0.6083 H         1 UNK         0.0719 
     91 H91        24.4181   24.6561    0.4302 H         1 UNK         0.0809 
     92 H92        24.7671   24.5244   -1.2870 H         1 UNK         0.0809 
     93 H93        26.0607   24.3234   -0.1123 H         1 UNK         0.0809 
     94 H94        26.1413   26.1464    1.5923 H         1 UNK         0.2990 
     95 H95        26.8727   29.4730    2.6992 H         1 UNK         0.0690 
     96 H96        24.5576   28.9701    3.4717 H         1 UNK         0.0788 
     97 H97        25.7400   28.5867    4.7124 H         1 UNK         0.0788 
     98 H98        24.9993   27.2936    3.7677 H         1 UNK         0.0788 
     99 H99        27.4062   26.7709    3.6349 H         1 UNK         0.2993 
    100 H100       30.7693   26.7239    2.3998 H         1 UNK         0.0949 
    101 H101       29.5790   27.0459    5.2154 H         1 UNK         0.0767 
    102 H102       31.1573   26.3539    4.8502 H         1 UNK         0.0767 
    103 H103       30.8340   28.0461    4.5045 H         1 UNK         0.0767 
    104 H104       29.4130   24.8177    3.9570 H         1 UNK         0.3013 
    105 H105       30.0797   27.6729   -0.4262 H         1 UNK         0.3121 
    106 H106       31.4231   29.6481   -2.0919 H         1 UNK         0.0774 
    107 H107       31.6345   29.0659    0.9112 H         1 UNK         0.0815 
    108 H108       32.7173   30.0834   -0.0214 H         1 UNK         0.0815 
    109 H109       32.6458   28.3607   -0.3485 H         1 UNK         0.0815 
    110 H110       28.6363   29.6663   -0.0757 H         1 UNK         0.2987 
    111 H111       27.1954   31.1632    0.7072 H         1 UNK         0.0949 
    112 H112       28.4779   33.2998   -1.0725 H         1 UNK         0.0806 
    113 H113       27.1832   32.2111   -1.5723 H         1 UNK         0.0806 
    114 H114       26.9067   33.3822   -0.2939 H         1 UNK         0.0806 
    115 H115       29.4030   30.4625    2.1674 H         1 UNK         0.3010 
    116 H116       30.2266   32.9177    3.6748 H         1 UNK         0.0829 
    117 H117       32.0968   31.6329    2.5683 H         1 UNK         0.0813 
    118 H118       32.2097   31.5538    4.3174 H         1 UNK         0.0813 
    119 H119       31.5956   30.1734    3.4168 H         1 UNK         0.0813 
    120 H120       30.4169   32.6206    6.0022 H         1 UNK         0.3038 
    121 H121       28.2342   31.1763    7.2214 H         1 UNK         0.0769 
    122 H122       30.6234   32.6378    8.4768 H         1 UNK         0.0811 
    123 H123       29.1949   32.0838    9.3381 H         1 UNK         0.0811 
    124 H124       29.0449   33.3443    8.1259 H         1 UNK         0.0811 
    125 H125       31.6648   30.4889    6.6972 H         1 UNK         0.3204 
    126 H126       31.3737   27.7131    7.2772 H         1 UNK         0.0748 
    127 H127       33.1811   27.6425    9.0444 H         1 UNK         0.0771 
    128 H128       33.1829   29.3993    9.1206 H         1 UNK         0.0771 
    129 H129       31.7639   28.4905    9.6377 H         1 UNK         0.0771 
    130 H130       33.3180   26.5892    6.5413 H         1 UNK         0.2980 
    131 H131       34.6621   27.8641    4.3325 H         1 UNK         0.0545 
    132 H132       37.9229   28.6331    5.5249 H         1 UNK         0.3459 
    133 H133       36.9108   28.4204    4.1209 H         1 UNK         0.3459 
    134 H134       35.9277   25.6335    4.2523 H         1 UNK         0.0616 
    135 H135       35.0116   25.1155    5.6403 H         1 UNK         0.0616 
    136 H136       35.2992   24.1356    2.3666 H         1 UNK         0.0634 
    137 H137       35.0662   25.7889    1.8423 H         1 UNK         0.0634 
@<TRIPOS>BOND
     1    1    2 1    
     2    1   72 1    
     3    1   73 1    
     4    1   74 1    
     5    2    3 2    
     6    2    4 am   BACKBONE|DICT|INTERRES
     7    4    5 1    
     8    4   75 1    
     9    5    6 1    
    10    5   35 1    
    11    5   76 1    
    12    6    7 1    
    13    6   77 1    
    14    6   78 1    
    15    7    8 1    
    16    8    9 1    
    17    8   79 1    
    18    8   80 1    
    19    9   10 ar   
    20    9   14 ar   
    21   10   11 ar   
    22   10   81 1    
    23   11   12 ar   
    24   11   71 1    
    25   12   13 ar   
    26   12   82 1    
    27   13   14 ar   
    28   13   15 1    
    29   14   83 1    
    30   15   16 1    
    31   15   84 1    
    32   15   85 1    
    33   16   17 1    
    34   17   18 1    
    35   17   86 1    
    36   17   87 1    
    37   18   19 1    
    38   18   37 1    
    39   18   88 1    
    40   19   20 am   BACKBONE|DICT|INTERRES
    41   19   89 1    
    42   20   21 2    
    43   20   22 1    
    44   22   23 1    
    45   22   24 1    
    46   22   90 1    
    47   23   91 1    
    48   23   92 1    
    49   23   93 1    
    50   24   25 am   BACKBONE|DICT|INTERRES
    51   24   94 1    
    52   25   26 2    
    53   25   27 1    
    54   27   28 1    
    55   27   29 1    
    56   27   95 1    
    57   28   96 1    
    58   28   97 1    
    59   28   98 1    
    60   29   30 am   BACKBONE|DICT|INTERRES
    61   29   99 1    
    62   30   31 2    
    63   30   32 1    
    64   32   33 1    
    65   32   34 1    
    66   32  100 1    
    67   33  101 1    
    68   33  102 1    
    69   33  103 1    
    70   34   35 am   BACKBONE|DICT|INTERRES
    71   34  104 1    
    72   35   36 2    
    73   37   38 2    
    74   37   39 am   BACKBONE|DICT|INTERRES
    75   39   40 1    
    76   39  105 1    
    77   40   41 1    
    78   40   42 1    
    79   40  106 1    
    80   41  107 1    
    81   41  108 1    
    82   41  109 1    
    83   42   43 2    
    84   42   44 am   BACKBONE|DICT|INTERRES
    85   44   45 1    
    86   44  110 1    
    87   45   46 1    
    88   45   47 1    
    89   45  111 1    
    90   46  112 1    
    91   46  113 1    
    92   46  114 1    
    93   47   48 2    
    94   47   49 am   BACKBONE|DICT|INTERRES
    95   49   50 1    
    96   49  115 1    
    97   50   51 1    
    98   50   52 1    
    99   50  116 1    
   100   51  117 1    
   101   51  118 1    
   102   51  119 1    
   103   52   53 2    
   104   52   54 am   BACKBONE|DICT|INTERRES
   105   54   55 1    
   106   54  120 1    
   107   55   56 1    
   108   55   57 1    
   109   55  121 1    
   110   56  122 1    
   111   56  123 1    
   112   56  124 1    
   113   57   58 2    
   114   57   59 am   BACKBONE|DICT|INTERRES
   115   59   60 1    
   116   59  125 1    
   117   60   61 1    
   118   60   62 1    
   119   60  126 1    
   120   61  127 1    
   121   61  128 1    
   122   61  129 1    
   123   62   63 2    
   124   62   64 am   BACKBONE|DICT|INTERRES
   125   64   65 1    
   126   64  130 1    
   127   65   66 1    
   128   65   69 1    
   129   65  131 1    
   130   66   67 am   BACKBONE|DICT|INTERRES
   131   66   68 2    
   132   67  132 1    
   133   67  133 1    
   134   69   70 1    
   135   69  134 1    
   136   69  135 1    
   137   70   71 1    
   138   71  136 1    
   139   71  137 1    
@<TRIPOS>SUBSTRUCTURE
     1 UNK         1 GROUP             0       ****    0 ROOT    
