@<TRIPOS>MOLECULE
3R136
137   139    1
SMALL
USER_CHARGES


@<TRIPOS>ATOM
      1 CA         27.8905   19.5016   -0.5933 C.3       0 UNK        -0.1979 
      2 C          28.3103   20.8948   -0.1490 C.2       0 UNK         0.4864 
      3 O          28.3623   21.8062   -0.9759 O.2       0 UNK        -0.5359 
      4 N          28.6048   21.0610    1.1493 N.am      1 UNK        -0.4318 
      5 CA         29.0359   22.3143    1.7829 C.3       1 UNK         0.0824 
      6 C6         29.3256   22.1240    3.2950 C.3       12 UNK        -0.0944 
      7 S7         30.9249   21.2928    3.5743 S.3       12 UNK        -0.2672 
      8 C8         31.7675   22.4349    4.7277 C.3       12 UNK         0.0333 
      9 C9         31.8659   23.8604    4.1944 C.ar      12 UNK        -0.0807 
     10 C10        32.5485   24.1220    3.0035 C.ar      12 UNK        -0.0894 
     11 C11        32.6053   25.4187    2.4854 C.ar      12 UNK        -0.0804 
     12 C12        31.9795   26.4623    3.1751 C.ar      12 UNK        -0.0824 
     13 C13        31.3110   26.2191    4.3808 C.ar      12 UNK        -0.0762 
     14 C14        31.2629   24.9164    4.8868 C.ar      12 UNK        -0.0782 
     15 C15        30.6489   27.3660    5.1389 C.3       12 UNK         0.0230 
     16 S16        28.8352   27.2162    5.2803 S.3       12 UNK        -0.2608 
     17 C17        28.3091   26.8122    3.5823 C.3       12 UNK        -0.0989 
     18 CA         28.6173   27.8969    2.5189 C.3       5 UNK         0.0716 
     19 N          28.7472   27.2955    1.1863 N.am      5 UNK        -0.4135 
     20 C          29.1220   27.9220    0.0617 C.2       4 UNK         0.5031 
     21 O          29.3997   29.1193    0.0078 O.2       4 UNK        -0.5229 
     22 CA         29.1460   27.0844   -1.2258 C.3       4 UNK         0.0329 
     23 CB         30.4477   26.2795   -1.3365 C.3       4 UNK        -0.2001 
     24 N          28.0089   26.1665   -1.2853 N.am      4 UNK        -0.4303 
     25 C          26.8350   26.4506   -1.8639 C.2       3 UNK         0.5044 
     26 O          26.5966   27.5031   -2.4566 O.2       3 UNK        -0.5152 
     27 CA         25.7310   25.3827   -1.7592 C.3       3 UNK         0.0319 
     28 CB         25.8143   24.4057   -2.9429 C.3       3 UNK        -0.2001 
     29 N          25.7607   24.6239   -0.5060 N.am      3 UNK        -0.4354 
     30 C          25.5550   25.1502    0.7093 C.2       2 UNK         0.4964 
     31 O          25.3311   26.3434    0.9149 O.2       2 UNK        -0.5047 
     32 CA         25.6576   24.1894    1.9063 C.3       2 UNK         0.0288 
     33 CB         24.3220   23.4597    2.1222 C.3       2 UNK        -0.2113 
     34 N          26.7443   23.2028    1.8351 N.am      2 UNK        -0.4145 
     35 C          28.0356   23.4659    1.5791 C.2       1 UNK         0.5006 
     36 O          28.4557   24.5584    1.1991 O.2       1 UNK        -0.5103 
     37 C          27.6073   29.0641    2.5650 C.2       5 UNK         0.5055 
     38 O          27.7862   29.9875    3.3604 O.2       5 UNK        -0.5220 
     39 N          26.6162   29.0513    1.6593 N.am      6 UNK        -0.4450 
     40 CA         25.6753   30.1433    1.3853 C.3       6 UNK         0.0367 
     41 CB         24.7210   29.7054    0.2624 C.3       6 UNK        -0.1929 
     42 C          26.3278   31.4984    1.0324 C.2       6 UNK         0.5070 
     43 O          25.6698   32.5282    1.1816 O.2       6 UNK        -0.5237 
     44 N          27.6019   31.4970    0.6074 N.am      7 UNK        -0.4739 
     45 CA         28.4186   32.7012    0.4146 C.3       7 UNK         0.0276 
     46 CB         29.6534   32.3423   -0.4286 C.3       7 UNK        -0.1927 
     47 C          28.8493   33.3827    1.7316 C.2       7 UNK         0.5013 
     48 O          29.3644   34.4999    1.6739 O.2       7 UNK        -0.5193 
     49 N          28.6405   32.7142    2.8781 N.am      8 UNK        -0.4253 
     50 CA         28.9455   33.1575    4.2435 C.3       8 UNK         0.0242 
     51 CB         28.1298   34.4134    4.6210 C.3       8 UNK        -0.2000 
     52 C          30.4554   33.3062    4.5118 C.2       8 UNK         0.4948 
     53 O          30.8701   34.2322    5.2122 O.2       8 UNK        -0.5275 
     54 N          31.2475   32.3732    3.9726 N.am      9 UNK        -0.4246 
     55 CA         32.6778   32.2287    4.2216 C.3       9 UNK         0.0261 
     56 CB         33.4758   32.8645    3.0706 C.3       9 UNK        -0.1959 
     57 C          32.9682   30.7305    4.3387 C.2       9 UNK         0.5033 
     58 O          32.5017   29.9653    3.4918 O.2       9 UNK        -0.5390 
     59 N          33.7067   30.3373    5.3828 N.am      10 UNK        -0.4215 
     60 CA         34.0893   28.9494    5.6435 C.3       10 UNK         0.0240 
     61 CB         34.3504   28.7660    7.1473 C.3       10 UNK        -0.1982 
     62 C          35.3268   28.5589    4.8260 C.2       10 UNK         0.4970 
     63 O          36.2528   29.3644    4.7030 O.2       10 UNK        -0.4916 
     64 N          35.3268   27.3233    4.3166 N.am      11 UNK        -0.4279 
     65 CA         36.4172   26.7514    3.5093 C.3       11 UNK         0.1003 
     66 C          37.5009   26.0094    4.3439 C.2       11 UNK         0.5709 
     67 N          37.3658   25.8896    5.6597 N.am      11 UNK        -0.7358 
     68 O          38.4945   25.5457    3.7890 O.2       11 UNK        -0.4999 
     69 C69        35.8699   25.8621    2.3621 C.3       12 UNK        -0.0954 
     70 S70        34.7335   26.7891    1.2757 S.3       12 UNK        -0.2268 
     71 C71        33.3019   25.6727    1.1544 C.3       12 UNK         0.0203 
     72 H72        28.5761   19.1289   -1.3539 H         1 UNK         0.0888 
     73 H73        27.8849   18.7928    0.2345 H         1 UNK         0.0888 
     74 H74        26.8891   19.5307   -1.0219 H         1 UNK         0.0888 
     75 H75        28.5636   20.2609    1.7648 H         1 UNK         0.3017 
     76 H76        29.9591   22.6251    1.2882 H         1 UNK         0.0873 
     77 H77        29.3306   23.0812    3.8189 H         1 UNK         0.0745 
     78 H78        28.5378   21.5387    3.7727 H         1 UNK         0.0745 
     79 H79        31.2416   22.4145    5.6835 H         1 UNK         0.0705 
     80 H80        32.7727   22.0595    4.9235 H         1 UNK         0.0705 
     81 H81        33.0141   23.3056    2.4683 H         1 UNK         0.1334 
     82 H82        32.0180   27.4646    2.7695 H         1 UNK         0.1417 
     83 H83        30.7369   24.7264    5.8128 H         1 UNK         0.1562 
     84 H84        30.8769   28.3231    4.6718 H         1 UNK         0.0748 
     85 H85        31.0699   27.4163    6.1439 H         1 UNK         0.0748 
     86 H86        27.2453   26.5700    3.5935 H         1 UNK         0.0940 
     87 H87        28.8141   25.8806    3.3301 H         1 UNK         0.0940 
     88 H88        29.5946   28.3315    2.7315 H         1 UNK         0.0703 
     89 H89        28.5756   26.2916    1.1388 H         1 UNK         0.3081 
     90 H90        29.1082   27.7740   -2.0720 H         1 UNK         0.0719 
     91 H91        31.3144   26.9409   -1.3078 H         1 UNK         0.0809 
     92 H92        30.5453   25.5568   -0.5253 H         1 UNK         0.0809 
     93 H93        30.4926   25.7307   -2.2773 H         1 UNK         0.0809 
     94 H94        28.0988   25.2959   -0.7745 H         1 UNK         0.2990 
     95 H95        24.7707   25.9003   -1.8098 H         1 UNK         0.0690 
     96 H96        25.7822   24.9399   -3.8937 H         1 UNK         0.0788 
     97 H97        24.9795   23.7047   -2.9387 H         1 UNK         0.0788 
     98 H98        26.7392   23.8271   -2.9240 H         1 UNK         0.0788 
     99 H99        25.9742   23.6386   -0.5727 H         1 UNK         0.2993 
    100 H100       25.8478   24.8031    2.7882 H         1 UNK         0.0949 
    101 H101       24.3297   22.8812    3.0462 H         1 UNK         0.0767 
    102 H102       23.4959   24.1689    2.1948 H         1 UNK         0.0767 
    103 H103       24.0961   22.7786    1.3006 H         1 UNK         0.0767 
    104 H104       26.5058   22.2599    2.1063 H         1 UNK         0.3013 
    105 H105       26.5042   28.2180    1.0938 H         1 UNK         0.3121 
    106 H106       25.0898   30.2989    2.2934 H         1 UNK         0.0774 
    107 H107       23.9975   30.4891    0.0332 H         1 UNK         0.0815 
    108 H108       25.2606   29.4785   -0.6583 H         1 UNK         0.0815 
    109 H109       24.1542   28.8184    0.5459 H         1 UNK         0.0815 
    110 H110       28.0803   30.6090    0.4860 H         1 UNK         0.2987 
    111 H111       27.8246   33.4280   -0.1438 H         1 UNK         0.0949 
    112 H112       30.3171   31.6579    0.1013 H         1 UNK         0.0806 
    113 H113       29.3707   31.8732   -1.3711 H         1 UNK         0.0806 
    114 H114       30.2337   33.2335   -0.6714 H         1 UNK         0.0806 
    115 H115       28.2357   31.7827    2.8190 H         1 UNK         0.3010 
    116 H116       28.6098   32.3493    4.8954 H         1 UNK         0.0829 
    117 H117       28.4527   35.2918    4.0615 H         1 UNK         0.0813 
    118 H118       27.0663   34.2669    4.4325 H         1 UNK         0.0813 
    119 H119       28.2410   34.6467    5.6806 H         1 UNK         0.0813 
    120 H120       30.8341   31.6184    3.4397 H         1 UNK         0.3038 
    121 H121       32.9481   32.7185    5.1598 H         1 UNK         0.0769 
    122 H122       33.2396   32.4001    2.1122 H         1 UNK         0.0811 
    123 H123       34.5489   32.7552    3.2325 H         1 UNK         0.0811 
    124 H124       33.2651   33.9308    2.9860 H         1 UNK         0.0811 
    125 H125       34.0940   31.0349    6.0021 H         1 UNK         0.3204 
    126 H126       33.2643   28.2961    5.3598 H         1 UNK         0.0748 
    127 H127       34.6029   27.7301    7.3773 H         1 UNK         0.0771 
    128 H128       35.1767   29.3881    7.4941 H         1 UNK         0.0771 
    129 H129       33.4686   29.0201    7.7361 H         1 UNK         0.0771 
    130 H130       34.5286   26.7226    4.4617 H         1 UNK         0.2980 
    131 H131       36.9520   27.5746    3.0316 H         1 UNK         0.0545 
    132 H132       38.0799   25.4121    6.1868 H         1 UNK         0.3459 
    133 H133       36.5622   26.2731    6.1293 H         1 UNK         0.3459 
    134 H134       35.3696   24.9816    2.7676 H         1 UNK         0.0616 
    135 H135       36.6853   25.4899    1.7394 H         1 UNK         0.0616 
    136 H136       32.5868   26.1238    0.4708 H         1 UNK         0.0634 
    137 H137       33.6215   24.7372    0.6927 H         1 UNK         0.0634 
@<TRIPOS>BOND
     1    1    2 1    
     2    1   72 1    
     3    1   73 1    
     4    1   74 1    
     5    2    3 2    
     6    2    4 am   BACKBONE|DICT|INTERRES
     7    4    5 1    
     8    4   75 1    
     9    5    6 1    
    10    5   35 1    
    11    5   76 1    
    12    6    7 1    
    13    6   77 1    
    14    6   78 1    
    15    7    8 1    
    16    8    9 1    
    17    8   79 1    
    18    8   80 1    
    19    9   10 ar   
    20    9   14 ar   
    21   10   11 ar   
    22   10   81 1    
    23   11   12 ar   
    24   11   71 1    
    25   12   13 ar   
    26   12   82 1    
    27   13   14 ar   
    28   13   15 1    
    29   14   83 1    
    30   15   16 1    
    31   15   84 1    
    32   15   85 1    
    33   16   17 1    
    34   17   18 1    
    35   17   86 1    
    36   17   87 1    
    37   18   19 1    
    38   18   37 1    
    39   18   88 1    
    40   19   20 am   BACKBONE|DICT|INTERRES
    41   19   89 1    
    42   20   21 2    
    43   20   22 1    
    44   22   23 1    
    45   22   24 1    
    46   22   90 1    
    47   23   91 1    
    48   23   92 1    
    49   23   93 1    
    50   24   25 am   BACKBONE|DICT|INTERRES
    51   24   94 1    
    52   25   26 2    
    53   25   27 1    
    54   27   28 1    
    55   27   29 1    
    56   27   95 1    
    57   28   96 1    
    58   28   97 1    
    59   28   98 1    
    60   29   30 am   BACKBONE|DICT|INTERRES
    61   29   99 1    
    62   30   31 2    
    63   30   32 1    
    64   32   33 1    
    65   32   34 1    
    66   32  100 1    
    67   33  101 1    
    68   33  102 1    
    69   33  103 1    
    70   34   35 am   BACKBONE|DICT|INTERRES
    71   34  104 1    
    72   35   36 2    
    73   37   38 2    
    74   37   39 am   BACKBONE|DICT|INTERRES
    75   39   40 1    
    76   39  105 1    
    77   40   41 1    
    78   40   42 1    
    79   40  106 1    
    80   41  107 1    
    81   41  108 1    
    82   41  109 1    
    83   42   43 2    
    84   42   44 am   BACKBONE|DICT|INTERRES
    85   44   45 1    
    86   44  110 1    
    87   45   46 1    
    88   45   47 1    
    89   45  111 1    
    90   46  112 1    
    91   46  113 1    
    92   46  114 1    
    93   47   48 2    
    94   47   49 am   BACKBONE|DICT|INTERRES
    95   49   50 1    
    96   49  115 1    
    97   50   51 1    
    98   50   52 1    
    99   50  116 1    
   100   51  117 1    
   101   51  118 1    
   102   51  119 1    
   103   52   53 2    
   104   52   54 am   BACKBONE|DICT|INTERRES
   105   54   55 1    
   106   54  120 1    
   107   55   56 1    
   108   55   57 1    
   109   55  121 1    
   110   56  122 1    
   111   56  123 1    
   112   56  124 1    
   113   57   58 2    
   114   57   59 am   BACKBONE|DICT|INTERRES
   115   59   60 1    
   116   59  125 1    
   117   60   61 1    
   118   60   62 1    
   119   60  126 1    
   120   61  127 1    
   121   61  128 1    
   122   61  129 1    
   123   62   63 2    
   124   62   64 am   BACKBONE|DICT|INTERRES
   125   64   65 1    
   126   64  130 1    
   127   65   66 1    
   128   65   69 1    
   129   65  131 1    
   130   66   67 am   BACKBONE|DICT|INTERRES
   131   66   68 2    
   132   67  132 1    
   133   67  133 1    
   134   69   70 1    
   135   69  134 1    
   136   69  135 1    
   137   70   71 1    
   138   71  136 1    
   139   71  137 1    
@<TRIPOS>SUBSTRUCTURE
     1 UNK         1 GROUP             0       ****    0 ROOT    
