@<TRIPOS>MOLECULE
3R136
137   139    1
SMALL
USER_CHARGES


@<TRIPOS>ATOM
      1 CA         29.8871   18.9695   -2.5476 C.3       0 UNK        -0.1979 
      2 C          30.3062   19.3862   -1.1453 C.2       0 UNK         0.4864 
      3 O          30.4715   18.5246   -0.2810 O.2       0 UNK        -0.5359 
      4 N          30.4730   20.6986   -0.9233 N.am      1 UNK        -0.4318 
      5 CA         30.8818   21.3312    0.3408 C.3       1 UNK         0.0824 
      6 C6         32.3575   21.0284    0.7348 C.3       12 UNK        -0.0944 
      7 S7         33.5401   21.7347   -0.4673 S.3       12 UNK        -0.2672 
      8 C8         34.0284   23.2964    0.3459 C.3       12 UNK         0.0333 
      9 C9         32.8176   24.1591    0.6714 C.ar      12 UNK        -0.0807 
     10 C10        32.3407   24.2317    1.9826 C.ar      12 UNK        -0.0894 
     11 C11        31.1627   24.9229    2.2705 C.ar      12 UNK        -0.0804 
     12 C12        30.4741   25.5633    1.2370 C.ar      12 UNK        -0.0824 
     13 C13        30.9513   25.5261   -0.0815 C.ar      12 UNK        -0.0762 
     14 C14        32.1329   24.8266   -0.3483 C.ar      12 UNK        -0.0782 
     15 C15        30.2274   26.1842   -1.2617 C.3       12 UNK         0.0230 
     16 S16        28.6802   27.0790   -0.8806 S.3       12 UNK        -0.2608 
     17 C17        29.3508   28.5612   -0.0632 C.3       12 UNK        -0.0989 
     18 CA         28.2755   29.4139    0.6537 C.3       5 UNK         0.0716 
     19 N          27.4731   28.6217    1.6021 N.am      5 UNK        -0.4135 
     20 C          26.2448   28.9237    2.0430 C.2       4 UNK         0.5031 
     21 O          25.6591   29.9670    1.7462 O.2       4 UNK        -0.5229 
     22 CA         25.5566   27.8897    2.9541 C.3       4 UNK         0.0329 
     23 CB         24.2384   28.4139    3.5539 C.3       4 UNK        -0.2001 
     24 N          25.2922   26.6343    2.2475 N.am      4 UNK        -0.4303 
     25 C          26.1969   25.6666    2.0671 C.2       3 UNK         0.5044 
     26 O          27.3631   25.7500    2.4561 O.2       3 UNK        -0.5152 
     27 CA         25.7328   24.4101    1.3228 C.3       3 UNK         0.0319 
     28 CB         25.7127   24.6364   -0.1993 C.3       3 UNK        -0.2001 
     29 N          26.6442   23.3154    1.6462 N.am      3 UNK        -0.4354 
     30 C          26.3238   22.0175    1.6778 C.2       2 UNK         0.4964 
     31 O          25.2101   21.5810    1.3811 O.2       2 UNK        -0.5047 
     32 CA         27.4517   21.0535    2.0752 C.3       2 UNK         0.0288 
     33 CB         27.0168   19.5736    2.0888 C.3       2 UNK        -0.2113 
     34 N          28.5775   21.2299    1.1602 N.am      2 UNK        -0.4145 
     35 C          29.8692   21.0797    1.4817 C.2       1 UNK         0.5006 
     36 O          30.2585   20.7659    2.6090 O.2       1 UNK        -0.5103 
     37 C          28.8801   30.7010    1.2731 C.2       5 UNK         0.5055 
     38 O          30.0697   30.9790    1.0849 O.2       5 UNK        -0.5220 
     39 N          28.0358   31.4698    1.9757 N.am      6 UNK        -0.4450 
     40 CA         28.2546   32.8134    2.5206 C.3       6 UNK         0.0367 
     41 CB         28.1953   33.8378    1.3640 C.3       6 UNK        -0.1929 
     42 C          29.5261   32.9485    3.3848 C.2       6 UNK         0.5070 
     43 O          29.9939   31.9655    3.9674 O.2       6 UNK        -0.5237 
     44 N          30.0661   34.1715    3.4511 N.am      7 UNK        -0.4739 
     45 CA         31.3498   34.4929    4.0783 C.3       7 UNK         0.0276 
     46 CB         31.3993   36.0023    4.3670 C.3       7 UNK        -0.1927 
     47 C          32.5581   34.0670    3.2220 C.2       7 UNK         0.5013 
     48 O          33.6751   34.0548    3.7375 O.2       7 UNK        -0.5193 
     49 N          32.3205   33.7261    1.9449 N.am      8 UNK        -0.4253 
     50 CA         33.3235   33.2602    0.9852 C.3       8 UNK         0.0242 
     51 CB         32.6980   33.1671   -0.4168 C.3       8 UNK        -0.2000 
     52 C          33.9513   31.9228    1.4048 C.2       8 UNK         0.4948 
     53 O          35.1766   31.8331    1.4903 O.2       8 UNK        -0.5275 
     54 N          33.1032   30.9269    1.6992 N.am      9 UNK        -0.4246 
     55 CA         33.5314   29.6536    2.2897 C.3       9 UNK         0.0261 
     56 CB         32.5847   28.5392    1.8252 C.3       9 UNK        -0.1959 
     57 C          33.5609   29.7006    3.8280 C.2       9 UNK         0.5033 
     58 O          34.1396   28.8010    4.4377 O.2       9 UNK        -0.5390 
     59 N          32.9135   30.7195    4.4169 N.am      10 UNK        -0.4215 
     60 CA         32.5801   30.8671    5.8394 C.3       10 UNK         0.0240 
     61 CB         33.8441   30.9613    6.7205 C.3       10 UNK        -0.1982 
     62 C          31.5840   29.7821    6.2920 C.2       10 UNK         0.4970 
     63 O          31.7327   29.2131    7.3753 O.2       10 UNK        -0.4916 
     64 N          30.5919   29.5248    5.4320 N.am      11 UNK        -0.4279 
     65 CA         29.5274   28.5284    5.6100 C.3       11 UNK         0.1003 
     66 C          28.1161   29.1710    5.7039 C.2       11 UNK         0.5709 
     67 N          27.9325   30.4440    5.3729 N.am      11 UNK        -0.7358 
     68 O          27.1682   28.5044    6.1097 O.2       11 UNK        -0.4999 
     69 C69        29.5776   27.4426    4.5007 C.3       12 UNK        -0.0954 
     70 S70        31.0973   26.4369    4.5940 S.3       12 UNK        -0.2268 
     71 C71        30.6165   24.9321    3.6912 C.3       12 UNK         0.0203 
     72 H72        29.7783   19.8254   -3.2135 H         1 UNK         0.0888 
     73 H73        30.6312   18.2992   -2.9771 H         1 UNK         0.0888 
     74 H74        28.9335   18.4434   -2.5132 H         1 UNK         0.0888 
     75 H75        30.3307   21.3396   -1.6914 H         1 UNK         0.3017 
     76 H76        30.8038   22.4020    0.1585 H         1 UNK         0.0873 
     77 H77        32.5959   21.4227    1.7235 H         1 UNK         0.0745 
     78 H78        32.5254   19.9525    0.8003 H         1 UNK         0.0745 
     79 H79        34.7039   23.8459   -0.3113 H         1 UNK         0.0705 
     80 H80        34.5964   23.0685    1.2493 H         1 UNK         0.0705 
     81 H81        32.8646   23.7150    2.7752 H         1 UNK         0.1334 
     82 H82        29.5632   26.0856    1.4751 H         1 UNK         0.1417 
     83 H83        32.5017   24.7630   -1.3635 H         1 UNK         0.1562 
     84 H84        29.9860   25.4072   -1.9885 H         1 UNK         0.0748 
     85 H85        30.9119   26.8700   -1.7631 H         1 UNK         0.0748 
     86 H86        29.8686   29.1534   -0.8206 H         1 UNK         0.0940 
     87 H87        30.1093   28.2481    0.6482 H         1 UNK         0.0940 
     88 H88        27.5917   29.7634   -0.1228 H         1 UNK         0.0703 
     89 H89        27.8454   27.7153    1.8601 H         1 UNK         0.3081 
     90 H90        26.2347   27.6883    3.7845 H         1 UNK         0.0719 
     91 H91        23.4984   28.6314    2.7827 H         1 UNK         0.0809 
     92 H92        23.8028   27.6916    4.2445 H         1 UNK         0.0809 
     93 H93        24.4061   29.3338    4.1160 H         1 UNK         0.0809 
     94 H94        24.3644   26.5161    1.8657 H         1 UNK         0.2990 
     95 H95        24.7271   24.1642    1.6709 H         1 UNK         0.0690 
     96 H96        25.3195   23.7648   -0.7228 H         1 UNK         0.0788 
     97 H97        26.7120   24.8342   -0.5876 H         1 UNK         0.0788 
     98 H98        25.0828   25.4856   -0.4669 H         1 UNK         0.0788 
     99 H99        27.5615   23.6204    1.9486 H         1 UNK         0.2993 
    100 H100       27.7556   21.3312    3.0872 H         1 UNK         0.0949 
    101 H101       26.1775   19.4177    2.7678 H         1 UNK         0.0767 
    102 H102       26.7073   19.2365    1.0988 H         1 UNK         0.0767 
    103 H103       27.8277   18.9260    2.4230 H         1 UNK         0.0767 
    104 H104       28.3388   21.5022    0.2163 H         1 UNK         0.3013 
    105 H105       27.0861   31.1139    2.0614 H         1 UNK         0.3121 
    106 H106       27.4142   33.0089    3.1879 H         1 UNK         0.0774 
    107 H107       28.1451   34.8639    1.7292 H         1 UNK         0.0815 
    108 H108       29.0614   33.7562    0.7057 H         1 UNK         0.0815 
    109 H109       27.3056   33.6854    0.7526 H         1 UNK         0.0815 
    110 H110       29.6001   34.9277    2.9698 H         1 UNK         0.2987 
    111 H111       31.4171   33.9614    5.0296 H         1 UNK         0.0949 
    112 H112       31.3403   36.5923    3.4515 H         1 UNK         0.0806 
    113 H113       30.5811   36.3090    5.0189 H         1 UNK         0.0806 
    114 H114       32.3290   36.2735    4.8695 H         1 UNK         0.0806 
    115 H115       31.3655   33.7560    1.6207 H         1 UNK         0.3010 
    116 H116       34.1216   34.0052    0.9522 H         1 UNK         0.0829 
    117 H117       32.3400   34.1393   -0.7560 H         1 UNK         0.0813 
    118 H118       33.4302   32.8206   -1.1475 H         1 UNK         0.0813 
    119 H119       31.8569   32.4730   -0.4445 H         1 UNK         0.0813 
    120 H120       32.1058   31.0583    1.5510 H         1 UNK         0.3038 
    121 H121       34.5372   29.4062    1.9433 H         1 UNK         0.0769 
    122 H122       32.9401   27.5615    2.1544 H         1 UNK         0.0811 
    123 H123       32.5049   28.5050    0.7387 H         1 UNK         0.0811 
    124 H124       31.5881   28.6743    2.2447 H         1 UNK         0.0811 
    125 H125       32.4729   31.3903    3.8038 H         1 UNK         0.3204 
    126 H126       32.0511   31.8159    5.9317 H         1 UNK         0.0748 
    127 H127       33.5825   31.2161    7.7481 H         1 UNK         0.0771 
    128 H128       34.3926   30.0196    6.7519 H         1 UNK         0.0771 
    129 H129       34.5220   31.7338    6.3572 H         1 UNK         0.0771 
    130 H130       30.5076   30.1195    4.6157 H         1 UNK         0.2980 
    131 H131       29.6668   28.0232    6.5673 H         1 UNK         0.0545 
    132 H132       27.0142   30.8448    5.4711 H         1 UNK         0.3459 
    133 H133       28.6985   31.0080    5.0230 H         1 UNK         0.3459 
    134 H134       28.7217   26.7720    4.5934 H         1 UNK         0.0616 
    135 H135       29.5155   27.8938    3.5098 H         1 UNK         0.0616 
    136 H136       30.9970   24.0690    4.2394 H         1 UNK         0.0634 
    137 H137       29.5327   24.8172    3.6790 H         1 UNK         0.0634 
@<TRIPOS>BOND
     1    1    2 1    
     2    1   72 1    
     3    1   73 1    
     4    1   74 1    
     5    2    3 2    
     6    2    4 am   BACKBONE|DICT|INTERRES
     7    4    5 1    
     8    4   75 1    
     9    5    6 1    
    10    5   35 1    
    11    5   76 1    
    12    6    7 1    
    13    6   77 1    
    14    6   78 1    
    15    7    8 1    
    16    8    9 1    
    17    8   79 1    
    18    8   80 1    
    19    9   10 ar   
    20    9   14 ar   
    21   10   11 ar   
    22   10   81 1    
    23   11   12 ar   
    24   11   71 1    
    25   12   13 ar   
    26   12   82 1    
    27   13   14 ar   
    28   13   15 1    
    29   14   83 1    
    30   15   16 1    
    31   15   84 1    
    32   15   85 1    
    33   16   17 1    
    34   17   18 1    
    35   17   86 1    
    36   17   87 1    
    37   18   19 1    
    38   18   37 1    
    39   18   88 1    
    40   19   20 am   BACKBONE|DICT|INTERRES
    41   19   89 1    
    42   20   21 2    
    43   20   22 1    
    44   22   23 1    
    45   22   24 1    
    46   22   90 1    
    47   23   91 1    
    48   23   92 1    
    49   23   93 1    
    50   24   25 am   BACKBONE|DICT|INTERRES
    51   24   94 1    
    52   25   26 2    
    53   25   27 1    
    54   27   28 1    
    55   27   29 1    
    56   27   95 1    
    57   28   96 1    
    58   28   97 1    
    59   28   98 1    
    60   29   30 am   BACKBONE|DICT|INTERRES
    61   29   99 1    
    62   30   31 2    
    63   30   32 1    
    64   32   33 1    
    65   32   34 1    
    66   32  100 1    
    67   33  101 1    
    68   33  102 1    
    69   33  103 1    
    70   34   35 am   BACKBONE|DICT|INTERRES
    71   34  104 1    
    72   35   36 2    
    73   37   38 2    
    74   37   39 am   BACKBONE|DICT|INTERRES
    75   39   40 1    
    76   39  105 1    
    77   40   41 1    
    78   40   42 1    
    79   40  106 1    
    80   41  107 1    
    81   41  108 1    
    82   41  109 1    
    83   42   43 2    
    84   42   44 am   BACKBONE|DICT|INTERRES
    85   44   45 1    
    86   44  110 1    
    87   45   46 1    
    88   45   47 1    
    89   45  111 1    
    90   46  112 1    
    91   46  113 1    
    92   46  114 1    
    93   47   48 2    
    94   47   49 am   BACKBONE|DICT|INTERRES
    95   49   50 1    
    96   49  115 1    
    97   50   51 1    
    98   50   52 1    
    99   50  116 1    
   100   51  117 1    
   101   51  118 1    
   102   51  119 1    
   103   52   53 2    
   104   52   54 am   BACKBONE|DICT|INTERRES
   105   54   55 1    
   106   54  120 1    
   107   55   56 1    
   108   55   57 1    
   109   55  121 1    
   110   56  122 1    
   111   56  123 1    
   112   56  124 1    
   113   57   58 2    
   114   57   59 am   BACKBONE|DICT|INTERRES
   115   59   60 1    
   116   59  125 1    
   117   60   61 1    
   118   60   62 1    
   119   60  126 1    
   120   61  127 1    
   121   61  128 1    
   122   61  129 1    
   123   62   63 2    
   124   62   64 am   BACKBONE|DICT|INTERRES
   125   64   65 1    
   126   64  130 1    
   127   65   66 1    
   128   65   69 1    
   129   65  131 1    
   130   66   67 am   BACKBONE|DICT|INTERRES
   131   66   68 2    
   132   67  132 1    
   133   67  133 1    
   134   69   70 1    
   135   69  134 1    
   136   69  135 1    
   137   70   71 1    
   138   71  136 1    
   139   71  137 1    
@<TRIPOS>SUBSTRUCTURE
     1 UNK         1 GROUP             0       ****    0 ROOT    
