@<TRIPOS>MOLECULE
3R136
137   139    1
SMALL
USER_CHARGES


@<TRIPOS>ATOM
      1 CA         29.1897   22.1086   -3.0435 C.3       0 UNK        -0.1979 
      2 C          29.8415   23.4239   -2.6438 C.2       0 UNK         0.4864 
      3 O          29.8837   24.3559   -3.4491 O.2       0 UNK        -0.5359 
      4 N          30.3560   23.5047   -1.4098 N.am      1 UNK        -0.4318 
      5 CA         30.9452   24.7136   -0.8261 C.3       1 UNK         0.0824 
      6 C6         31.6020   24.4449    0.5479 C.3       12 UNK        -0.0944 
      7 S7         32.7440   23.0220    0.6349 S.3       12 UNK        -0.2672 
      8 C8         33.3198   23.0913    2.3751 C.3       12 UNK         0.0333 
      9 C9         32.2558   23.6287    3.3261 C.ar      12 UNK        -0.0807 
     10 C10        32.3337   24.9466    3.7859 C.ar      12 UNK        -0.0894 
     11 C11        31.2972   25.4988    4.5416 C.ar      12 UNK        -0.0804 
     12 C12        30.1870   24.7159    4.8645 C.ar      12 UNK        -0.0824 
     13 C13        30.0920   23.3993    4.4021 C.ar      12 UNK        -0.0762 
     14 C14        31.1390   22.8529    3.6519 C.ar      12 UNK        -0.0782 
     15 C15        28.8363   22.5820    4.6615 C.3       12 UNK         0.0230 
     16 S16        27.5782   22.8773    3.3724 S.3       12 UNK        -0.2608 
     17 C17        26.8387   24.4580    3.9139 C.3       12 UNK        -0.0989 
     18 CA         27.1228   25.6484    2.9473 C.3       5 UNK         0.0716 
     19 N          26.6018   25.4294    1.5900 N.am      5 UNK        -0.4135 
     20 C          25.3160   25.2710    1.2424 C.2       4 UNK         0.5031 
     21 O          24.3751   25.3512    2.0348 O.2       4 UNK        -0.5229 
     22 CA         25.0382   25.0093   -0.2464 C.3       4 UNK         0.0329 
     23 CB         23.5405   24.7973   -0.5552 C.3       4 UNK        -0.2001 
     24 N          25.5672   26.1206   -1.0286 N.am      4 UNK        -0.4303 
     25 C          25.8620   26.1137   -2.3314 C.2       3 UNK         0.5044 
     26 O          25.6803   25.1485   -3.0744 O.2       3 UNK        -0.5152 
     27 CA         26.4786   27.4053   -2.9038 C.3       3 UNK         0.0319 
     28 CB         25.4631   28.5664   -2.9158 C.3       3 UNK        -0.2001 
     29 N          27.7400   27.7864   -2.2516 N.am      3 UNK        -0.4354 
     30 C          27.9399   28.1597   -0.9785 C.2       2 UNK         0.4964 
     31 O          27.0371   28.3213   -0.1539 O.2       2 UNK        -0.5047 
     32 CA         29.4114   28.2586   -0.5305 C.3       2 UNK         0.0288 
     33 CB         29.5478   28.5550    0.9786 C.3       2 UNK        -0.2113 
     34 N          30.1992   27.0601   -0.8638 N.am      2 UNK        -0.4145 
     35 C          29.8605   25.7852   -0.6079 C.2       1 UNK         0.5006 
     36 O          28.7734   25.4345   -0.1392 O.2       1 UNK        -0.5103 
     37 C          26.6714   27.0026    3.5503 C.2       5 UNK         0.5055 
     38 O          26.5223   27.1015    4.7699 O.2       5 UNK        -0.5220 
     39 N          26.4685   28.0379    2.7192 N.am      6 UNK        -0.4450 
     40 CA         25.8873   29.3308    3.1101 C.3       6 UNK         0.0367 
     41 CB         25.2388   29.9856    1.8755 C.3       6 UNK        -0.1929 
     42 C          26.8615   30.2869    3.8362 C.2       6 UNK         0.5070 
     43 O          26.8073   31.4948    3.6005 O.2       6 UNK        -0.5237 
     44 N          27.7088   29.7397    4.7214 N.am      7 UNK        -0.4739 
     45 CA         28.6375   30.4296    5.6308 C.3       7 UNK         0.0276 
     46 CB         27.8498   31.0708    6.7925 C.3       7 UNK        -0.1927 
     47 C          29.5765   31.4321    4.9263 C.2       7 UNK         0.5013 
     48 O          29.6920   32.5822    5.3557 O.2       7 UNK        -0.5193 
     49 N          30.2205   30.9742    3.8487 N.am      8 UNK        -0.4253 
     50 CA         31.1534   31.7441    3.0292 C.3       8 UNK         0.0242 
     51 CB         30.3794   32.4211    1.8793 C.3       8 UNK        -0.2000 
     52 C          32.2654   30.8133    2.5258 C.2       8 UNK         0.4948 
     53 O          32.3601   29.6716    2.9847 O.2       8 UNK        -0.5275 
     54 N          33.0822   31.3055    1.5836 N.am      9 UNK        -0.4246 
     55 CA         34.2065   30.6078    0.9500 C.3       9 UNK         0.0261 
     56 CB         33.7060   29.4316    0.0764 C.3       9 UNK        -0.1959 
     57 C          35.2691   30.2127    1.9917 C.2       9 UNK         0.5033 
     58 O          36.0231   31.0813    2.4335 O.2       9 UNK        -0.5390 
     59 N          35.3035   28.9296    2.3736 N.am      10 UNK        -0.4215 
     60 CA         36.1756   28.4005    3.4231 C.3       10 UNK         0.0240 
     61 CB         36.2718   26.8725    3.2828 C.3       10 UNK        -0.1982 
     62 C          35.7229   28.7872    4.8437 C.2       10 UNK         0.4970 
     63 O          36.5691   28.8355    5.7378 O.2       10 UNK        -0.4916 
     64 N          34.4221   29.0443    5.0374 N.am      11 UNK        -0.4279 
     65 CA         33.8550   29.4932    6.3164 C.3       11 UNK         0.1003 
     66 C          33.9775   31.0318    6.4700 C.2       11 UNK         0.5709 
     67 N          34.2017   31.5171    7.6836 N.am      11 UNK        -0.7358 
     68 O          33.8328   31.7900    5.5129 O.2       11 UNK        -0.4999 
     69 C69        32.3841   29.0376    6.4914 C.3       12 UNK        -0.0954 
     70 S70        32.2110   27.2212    6.5080 S.3       12 UNK        -0.2268 
     71 C71        31.3464   26.9647    4.9336 C.3       12 UNK         0.0203 
     72 H72        28.1405   22.2718   -3.2890 H         1 UNK         0.0888 
     73 H73        29.6859   21.6944   -3.9207 H         1 UNK         0.0888 
     74 H74        29.2399   21.3694   -2.2441 H         1 UNK         0.0888 
     75 H75        30.2932   22.7128   -0.7866 H         1 UNK         0.3017 
     76 H76        31.7011   25.0916   -1.5175 H         1 UNK         0.0873 
     77 H77        32.1412   25.3330    0.8842 H         1 UNK         0.0745 
     78 H78        30.8138   24.2660    1.2822 H         1 UNK         0.0745 
     79 H79        34.2160   23.7121    2.4208 H         1 UNK         0.0705 
     80 H80        33.6251   22.0928    2.6907 H         1 UNK         0.0705 
     81 H81        33.1760   25.5636    3.5100 H         1 UNK         0.1334 
     82 H82        29.3811   25.1478    5.4407 H         1 UNK         0.1417 
     83 H83        31.0580   21.8454    3.2667 H         1 UNK         0.1562 
     84 H84        28.4285   22.8034    5.6490 H         1 UNK         0.0748 
     85 H85        29.0823   21.5191    4.6706 H         1 UNK         0.0748 
     86 H86        27.1967   24.6775    4.9198 H         1 UNK         0.0940 
     87 H87        25.7642   24.3066    4.0263 H         1 UNK         0.0940 
     88 H88        28.2052   25.7284    2.8363 H         1 UNK         0.0703 
     89 H89        27.3172   25.3729    0.8633 H         1 UNK         0.3081 
     90 H90        25.5818   24.1016   -0.5169 H         1 UNK         0.0719 
     91 H91        23.1307   23.9804    0.0400 H         1 UNK         0.0809 
     92 H92        22.9555   25.6907   -0.3339 H         1 UNK         0.0809 
     93 H93        23.3790   24.5425   -1.6025 H         1 UNK         0.0809 
     94 H94        25.8309   26.9546   -0.5083 H         1 UNK         0.2990 
     95 H95        26.7379   27.1933   -3.9424 H         1 UNK         0.0690 
     96 H96        25.1427   28.8496   -1.9129 H         1 UNK         0.0788 
     97 H97        24.5674   28.2907   -3.4737 H         1 UNK         0.0788 
     98 H98        25.8823   29.4518   -3.3936 H         1 UNK         0.0788 
     99 H99        28.5656   27.6252   -2.8122 H         1 UNK         0.2993 
    100 H100       29.8460   29.0968   -1.0776 H         1 UNK         0.0949 
    101 H101       29.1603   27.7388    1.5876 H         1 UNK         0.0767 
    102 H102       30.5913   28.6997    1.2520 H         1 UNK         0.0767 
    103 H103       29.0061   29.4596    1.2576 H         1 UNK         0.0767 
    104 H104       31.1067   27.2379   -1.2713 H         1 UNK         0.3013 
    105 H105       26.6715   27.9307    1.7292 H         1 UNK         0.3121 
    106 H106       25.0816   29.1280    3.8190 H         1 UNK         0.0774 
    107 H107       24.6466   30.8561    2.1601 H         1 UNK         0.0815 
    108 H108       25.9889   30.3255    1.1608 H         1 UNK         0.0815 
    109 H109       24.5702   29.2958    1.3601 H         1 UNK         0.0815 
    110 H110       27.6110   28.7386    4.8622 H         1 UNK         0.2987 
    111 H111       29.2803   29.6595    6.0598 H         1 UNK         0.0949 
    112 H112       27.2365   30.3337    7.3108 H         1 UNK         0.0806 
    113 H113       28.5242   31.5056    7.5313 H         1 UNK         0.0806 
    114 H114       27.1923   31.8672    6.4417 H         1 UNK         0.0806 
    115 H115       30.1369   29.9996    3.5946 H         1 UNK         0.3010 
    116 H116       31.6338   32.5086    3.6438 H         1 UNK         0.0829 
    117 H117       29.5357   32.9986    2.2585 H         1 UNK         0.0813 
    118 H118       31.0107   33.1137    1.3224 H         1 UNK         0.0813 
    119 H119       29.9869   31.6906    1.1714 H         1 UNK         0.0813 
    120 H120       32.9532   32.2657    1.2972 H         1 UNK         0.3038 
    121 H121       34.6846   31.3276    0.2835 H         1 UNK         0.0769 
    122 H122       33.0461   29.7909   -0.7133 H         1 UNK         0.0811 
    123 H123       34.5392   28.9243   -0.4118 H         1 UNK         0.0811 
    124 H124       33.1517   28.6854    0.6459 H         1 UNK         0.0811 
    125 H125       34.6207   28.2994    1.9793 H         1 UNK         0.3204 
    126 H126       37.1754   28.8151    3.2759 H         1 UNK         0.0748 
    127 H127       36.6484   26.5856    2.3008 H         1 UNK         0.0771 
    128 H128       36.9550   26.4561    4.0245 H         1 UNK         0.0771 
    129 H129       35.3053   26.3915    3.4271 H         1 UNK         0.0771 
    130 H130       33.7908   29.0737    4.2434 H         1 UNK         0.2980 
    131 H131       34.4294   29.0354    7.1246 H         1 UNK         0.0545 
    132 H132       34.3109   30.9073    8.4790 H         1 UNK         0.3459 
    133 H133       34.2695   32.5154    7.8052 H         1 UNK         0.3459 
    134 H134       31.9798   29.4096    7.4346 H         1 UNK         0.0616 
    135 H135       31.7598   29.4626    5.7059 H         1 UNK         0.0616 
    136 H136       31.8572   27.5200    4.1492 H         1 UNK         0.0634 
    137 H137       30.3388   27.3779    5.0000 H         1 UNK         0.0634 
@<TRIPOS>BOND
     1    1    2 1    
     2    1   72 1    
     3    1   73 1    
     4    1   74 1    
     5    2    3 2    
     6    2    4 am   BACKBONE|DICT|INTERRES
     7    4    5 1    
     8    4   75 1    
     9    5    6 1    
    10    5   35 1    
    11    5   76 1    
    12    6    7 1    
    13    6   77 1    
    14    6   78 1    
    15    7    8 1    
    16    8    9 1    
    17    8   79 1    
    18    8   80 1    
    19    9   10 ar   
    20    9   14 ar   
    21   10   11 ar   
    22   10   81 1    
    23   11   12 ar   
    24   11   71 1    
    25   12   13 ar   
    26   12   82 1    
    27   13   14 ar   
    28   13   15 1    
    29   14   83 1    
    30   15   16 1    
    31   15   84 1    
    32   15   85 1    
    33   16   17 1    
    34   17   18 1    
    35   17   86 1    
    36   17   87 1    
    37   18   19 1    
    38   18   37 1    
    39   18   88 1    
    40   19   20 am   BACKBONE|DICT|INTERRES
    41   19   89 1    
    42   20   21 2    
    43   20   22 1    
    44   22   23 1    
    45   22   24 1    
    46   22   90 1    
    47   23   91 1    
    48   23   92 1    
    49   23   93 1    
    50   24   25 am   BACKBONE|DICT|INTERRES
    51   24   94 1    
    52   25   26 2    
    53   25   27 1    
    54   27   28 1    
    55   27   29 1    
    56   27   95 1    
    57   28   96 1    
    58   28   97 1    
    59   28   98 1    
    60   29   30 am   BACKBONE|DICT|INTERRES
    61   29   99 1    
    62   30   31 2    
    63   30   32 1    
    64   32   33 1    
    65   32   34 1    
    66   32  100 1    
    67   33  101 1    
    68   33  102 1    
    69   33  103 1    
    70   34   35 am   BACKBONE|DICT|INTERRES
    71   34  104 1    
    72   35   36 2    
    73   37   38 2    
    74   37   39 am   BACKBONE|DICT|INTERRES
    75   39   40 1    
    76   39  105 1    
    77   40   41 1    
    78   40   42 1    
    79   40  106 1    
    80   41  107 1    
    81   41  108 1    
    82   41  109 1    
    83   42   43 2    
    84   42   44 am   BACKBONE|DICT|INTERRES
    85   44   45 1    
    86   44  110 1    
    87   45   46 1    
    88   45   47 1    
    89   45  111 1    
    90   46  112 1    
    91   46  113 1    
    92   46  114 1    
    93   47   48 2    
    94   47   49 am   BACKBONE|DICT|INTERRES
    95   49   50 1    
    96   49  115 1    
    97   50   51 1    
    98   50   52 1    
    99   50  116 1    
   100   51  117 1    
   101   51  118 1    
   102   51  119 1    
   103   52   53 2    
   104   52   54 am   BACKBONE|DICT|INTERRES
   105   54   55 1    
   106   54  120 1    
   107   55   56 1    
   108   55   57 1    
   109   55  121 1    
   110   56  122 1    
   111   56  123 1    
   112   56  124 1    
   113   57   58 2    
   114   57   59 am   BACKBONE|DICT|INTERRES
   115   59   60 1    
   116   59  125 1    
   117   60   61 1    
   118   60   62 1    
   119   60  126 1    
   120   61  127 1    
   121   61  128 1    
   122   61  129 1    
   123   62   63 2    
   124   62   64 am   BACKBONE|DICT|INTERRES
   125   64   65 1    
   126   64  130 1    
   127   65   66 1    
   128   65   69 1    
   129   65  131 1    
   130   66   67 am   BACKBONE|DICT|INTERRES
   131   66   68 2    
   132   67  132 1    
   133   67  133 1    
   134   69   70 1    
   135   69  134 1    
   136   69  135 1    
   137   70   71 1    
   138   71  136 1    
   139   71  137 1    
@<TRIPOS>SUBSTRUCTURE
     1 UNK         1 GROUP             0       ****    0 ROOT    
