@<TRIPOS>MOLECULE
3R136
137   139    1
SMALL
USER_CHARGES


@<TRIPOS>ATOM
      1 CA         29.9615   22.3964   -4.0266 C.3       0 UNK        -0.1979 
      2 C          29.3114   23.0580   -2.8206 C.2       0 UNK         0.4864 
      3 O          28.8116   24.1771   -2.9346 O.2       0 UNK        -0.5359 
      4 N          29.3235   22.3791   -1.6662 N.am      1 UNK        -0.4318 
      5 CA         28.7039   22.8337   -0.4202 C.3       1 UNK         0.0824 
      6 C6         29.2132   22.0002    0.7834 C.3       12 UNK        -0.0944 
      7 S7         28.6788   22.6494    2.4060 S.3       12 UNK        -0.2672 
      8 C8         30.1754   22.4407    3.4229 C.3       12 UNK         0.0333 
      9 C9         31.0477   23.6853    3.3869 C.ar      12 UNK        -0.0807 
     10 C10        30.8753   24.6849    4.3492 C.ar      12 UNK        -0.0894 
     11 C11        31.6399   25.8545    4.3041 C.ar      12 UNK        -0.0804 
     12 C12        32.5923   26.0122    3.2943 C.ar      12 UNK        -0.0824 
     13 C13        32.7867   25.0120    2.3388 C.ar      12 UNK        -0.0762 
     14 C14        32.0153   23.8475    2.3912 C.ar      12 UNK        -0.0782 
     15 C15        33.8264   25.2023    1.2466 C.3       12 UNK         0.0230 
     16 S16        33.3420   26.5096    0.0769 S.3       12 UNK        -0.2608 
     17 C17        31.9250   25.7473   -0.7942 C.3       12 UNK        -0.0989 
     18 CA         30.6007   26.5487   -0.6877 C.3       5 UNK         0.0716 
     19 N          30.1084   26.6246    0.6962 N.am      5 UNK        -0.4135 
     20 C          28.8143   26.5848    1.0352 C.2       4 UNK         0.5031 
     21 O          27.9042   26.3761    0.2282 O.2       4 UNK        -0.5229 
     22 CA         28.4692   26.8216    2.5110 C.3       4 UNK         0.0329 
     23 CB         28.4742   28.3177    2.8646 C.3       4 UNK        -0.2001 
     24 N          27.1453   26.2643    2.7497 N.am      4 UNK        -0.4303 
     25 C          26.7507   25.5711    3.8206 C.2       3 UNK         0.5044 
     26 O          27.3959   25.5009    4.8667 O.2       3 UNK        -0.5152 
     27 CA         25.4416   24.7656    3.6880 C.3       3 UNK         0.0319 
     28 CB         24.2265   25.5615    4.2044 C.3       3 UNK        -0.2001 
     29 N          25.2288   24.2145    2.3364 N.am      3 UNK        -0.4354 
     30 C          24.8872   24.8579    1.2089 C.2       2 UNK         0.4964 
     31 O          24.5761   26.0480    1.1599 O.2       2 UNK        -0.5047 
     32 CA         25.0742   24.0621   -0.0885 C.3       2 UNK         0.0288 
     33 CB         24.4607   24.7534   -1.3206 C.3       2 UNK        -0.2113 
     34 N          26.5158   23.9267   -0.2754 N.am      2 UNK        -0.4145 
     35 C          27.1649   22.7881   -0.5354 C.2       1 UNK         0.5006 
     36 O          26.6067   21.7230   -0.8119 O.2       1 UNK        -0.5103 
     37 C          30.7032   27.9412   -1.3566 C.2       5 UNK         0.5055 
     38 O          31.0979   28.0234   -2.5214 O.2       5 UNK        -0.5220 
     39 N          30.3690   29.0064   -0.6189 N.am      6 UNK        -0.4450 
     40 CA         30.4395   30.4039   -1.0305 C.3       6 UNK         0.0367 
     41 CB         31.7576   31.0076   -0.5077 C.3       6 UNK        -0.1929 
     42 C          29.2150   31.1484   -0.4795 C.2       6 UNK         0.5070 
     43 O          28.3844   30.5493    0.2068 O.2       6 UNK        -0.5237 
     44 N          29.1297   32.4516   -0.7762 N.am      7 UNK        -0.4739 
     45 CA         28.0518   33.3478   -0.3361 C.3       7 UNK         0.0276 
     46 CB         28.1404   34.6589   -1.1355 C.3       7 UNK        -0.1927 
     47 C          28.0358   33.6410    1.1790 C.2       7 UNK         0.5013 
     48 O          27.0379   34.1672    1.6741 O.2       7 UNK        -0.5193 
     49 N          29.1237   33.3079    1.8818 N.am      8 UNK        -0.4253 
     50 CA         29.2674   33.3924    3.3310 C.3       8 UNK         0.0242 
     51 CB         30.1815   34.5787    3.6811 C.3       8 UNK        -0.2000 
     52 C          29.8734   32.0772    3.8304 C.2       8 UNK         0.4948 
     53 O          30.5705   31.3957    3.0717 O.2       8 UNK        -0.5275 
     54 N          29.6380   31.7577    5.1091 N.am      9 UNK        -0.4246 
     55 CA         30.1189   30.5482    5.7856 C.3       9 UNK         0.0261 
     56 CB         29.2361   30.2715    7.0163 C.3       9 UNK        -0.1959 
     57 C          31.6213   30.6048    6.1320 C.2       9 UNK         0.5033 
     58 O          32.0049   30.4064    7.2867 O.2       9 UNK        -0.5390 
     59 N          32.4564   30.8502    5.1172 N.am      10 UNK        -0.4215 
     60 CA         33.9173   30.8458    5.1877 C.3       10 UNK         0.0240 
     61 CB         34.4671   31.7404    4.0607 C.3       10 UNK        -0.1982 
     62 C          34.4531   29.4036    5.1189 C.2       10 UNK         0.4970 
     63 O          35.0958   29.0298    4.1366 O.2       10 UNK        -0.4916 
     64 N          34.1309   28.6030    6.1427 N.am      11 UNK        -0.4279 
     65 CA         34.4672   27.1717    6.2181 C.3       11 UNK         0.1003 
     66 C          35.9664   26.8735    6.5190 C.2       11 UNK         0.5709 
     67 N          36.7746   27.8483    6.9193 N.am      11 UNK        -0.7358 
     68 O          36.4060   25.7346    6.3798 O.2       11 UNK        -0.4999 
     69 C69        33.5467   26.4007    7.2035 C.3       12 UNK        -0.0954 
     70 S70        31.7287   26.5547    7.0224 S.3       12 UNK        -0.2268 
     71 C71        31.3725   26.9848    5.2859 C.3       12 UNK         0.0203 
     72 H72        30.3740   21.4175   -3.7827 H         1 UNK         0.0888 
     73 H73        29.2290   22.2669   -4.8229 H         1 UNK         0.0888 
     74 H74        30.7705   23.0203   -4.4054 H         1 UNK         0.0888 
     75 H75        29.7179   21.4495   -1.6450 H         1 UNK         0.3017 
     76 H76        29.0154   23.8676   -0.2633 H         1 UNK         0.0873 
     77 H77        28.8837   20.9622    0.7040 H         1 UNK         0.0745 
     78 H78        30.3024   21.9669    0.7608 H         1 UNK         0.0745 
     79 H79        30.7377   21.5641    3.0979 H         1 UNK         0.0705 
     80 H80        29.8692   22.2366    4.4501 H         1 UNK         0.0705 
     81 H81        30.1169   24.5727    5.1128 H         1 UNK         0.1334 
     82 H82        33.1742   26.9225    3.2327 H         1 UNK         0.1417 
     83 H83        32.1602   23.0735    1.6507 H         1 UNK         0.1562 
     84 H84        34.0039   24.2736    0.7018 H         1 UNK         0.0748 
     85 H85        34.7784   25.4749    1.7044 H         1 UNK         0.0748 
     86 H86        31.7638   24.7347   -0.4225 H         1 UNK         0.0940 
     87 H87        32.2030   25.6215   -1.8424 H         1 UNK         0.0940 
     88 H88        29.8679   26.0035   -1.2847 H         1 UNK         0.0703 
     89 H89        30.8141   26.7576    1.4073 H         1 UNK         0.3081 
     90 H90        29.1984   26.2960    3.1213 H         1 UNK         0.0719 
     91 H91        29.4584   28.7610    2.7090 H         1 UNK         0.0809 
     92 H92        28.2085   28.4749    3.9099 H         1 UNK         0.0809 
     93 H93        27.7624   28.8763    2.2556 H         1 UNK         0.0809 
     94 H94        26.5352   26.2765    1.9386 H         1 UNK         0.2990 
     95 H95        25.5541   23.8945    4.3356 H         1 UNK         0.0690 
     96 H96        23.3065   24.9837    4.1178 H         1 UNK         0.0788 
     97 H97        24.0887   26.4991    3.6657 H         1 UNK         0.0788 
     98 H98        24.3533   25.8149    5.2577 H         1 UNK         0.0788 
     99 H99        25.5183   23.2505    2.2375 H         1 UNK         0.2993 
    100 H100       24.5996   23.0870    0.0426 H         1 UNK         0.0949 
    101 H101       23.3892   24.9085   -1.1881 H         1 UNK         0.0767 
    102 H102       24.9148   25.7280   -1.5057 H         1 UNK         0.0767 
    103 H103       24.5947   24.1485   -2.2176 H         1 UNK         0.0767 
    104 H104       27.0550   24.7731   -0.0941 H         1 UNK         0.3013 
    105 H105       29.9393   28.8617    0.2841 H         1 UNK         0.3121 
    106 H106       30.4085   30.4767   -2.1197 H         1 UNK         0.0774 
    107 H107       31.8867   32.0390   -0.8366 H         1 UNK         0.0815 
    108 H108       31.7981   31.0022    0.5826 H         1 UNK         0.0815 
    109 H109       32.6187   30.4474   -0.8728 H         1 UNK         0.0815 
    110 H110       29.8531   32.8677   -1.3458 H         1 UNK         0.2987 
    111 H111       27.1001   32.8669   -0.5734 H         1 UNK         0.0949 
    112 H112       28.0624   34.4777   -2.2077 H         1 UNK         0.0806 
    113 H113       27.3300   35.3377   -0.8657 H         1 UNK         0.0806 
    114 H114       29.0787   35.1827   -0.9487 H         1 UNK         0.0806 
    115 H115       29.8616   32.7984    1.4145 H         1 UNK         0.3010 
    116 H116       28.2922   33.5266    3.8044 H         1 UNK         0.0829 
    117 H117       29.7644   35.5184    3.3184 H         1 UNK         0.0813 
    118 H118       30.3062   34.6754    4.7604 H         1 UNK         0.0813 
    119 H119       31.1754   34.4645    3.2459 H         1 UNK         0.0813 
    120 H120       29.0970   32.3969    5.6743 H         1 UNK         0.3038 
    121 H121       29.9918   29.7082    5.1013 H         1 UNK         0.0769 
    122 H122       29.3098   31.0709    7.7546 H         1 UNK         0.0811 
    123 H123       29.5329   29.3438    7.5084 H         1 UNK         0.0811 
    124 H124       28.1876   30.1643    6.7377 H         1 UNK         0.0811 
    125 H125       32.0363   30.9923    4.2007 H         1 UNK         0.3204 
    126 H126       34.2345   31.2733    6.1414 H         1 UNK         0.0748 
    127 H127       35.5573   31.7718    4.0826 H         1 UNK         0.0771 
    128 H128       34.1690   31.3799    3.0750 H         1 UNK         0.0771 
    129 H129       34.1120   32.7663    4.1617 H         1 UNK         0.0771 
    130 H130       33.5645   28.9798    6.8940 H         1 UNK         0.2980 
    131 H131       34.3024   26.7481    5.2299 H         1 UNK         0.0545 
    132 H132       37.7431   27.6413    7.1064 H         1 UNK         0.3459 
    133 H133       36.4256   28.7853    7.0388 H         1 UNK         0.3459 
    134 H134       33.7677   25.3332    7.1469 H         1 UNK         0.0616 
    135 H135       33.7835   26.6949    8.2275 H         1 UNK         0.0616 
    136 H136       31.9022   27.8877    4.9931 H         1 UNK         0.0634 
    137 H137       30.3133   27.2376    5.2248 H         1 UNK         0.0634 
@<TRIPOS>BOND
     1    1    2 1    
     2    1   72 1    
     3    1   73 1    
     4    1   74 1    
     5    2    3 2    
     6    2    4 am   BACKBONE|DICT|INTERRES
     7    4    5 1    
     8    4   75 1    
     9    5    6 1    
    10    5   35 1    
    11    5   76 1    
    12    6    7 1    
    13    6   77 1    
    14    6   78 1    
    15    7    8 1    
    16    8    9 1    
    17    8   79 1    
    18    8   80 1    
    19    9   10 ar   
    20    9   14 ar   
    21   10   11 ar   
    22   10   81 1    
    23   11   12 ar   
    24   11   71 1    
    25   12   13 ar   
    26   12   82 1    
    27   13   14 ar   
    28   13   15 1    
    29   14   83 1    
    30   15   16 1    
    31   15   84 1    
    32   15   85 1    
    33   16   17 1    
    34   17   18 1    
    35   17   86 1    
    36   17   87 1    
    37   18   19 1    
    38   18   37 1    
    39   18   88 1    
    40   19   20 am   BACKBONE|DICT|INTERRES
    41   19   89 1    
    42   20   21 2    
    43   20   22 1    
    44   22   23 1    
    45   22   24 1    
    46   22   90 1    
    47   23   91 1    
    48   23   92 1    
    49   23   93 1    
    50   24   25 am   BACKBONE|DICT|INTERRES
    51   24   94 1    
    52   25   26 2    
    53   25   27 1    
    54   27   28 1    
    55   27   29 1    
    56   27   95 1    
    57   28   96 1    
    58   28   97 1    
    59   28   98 1    
    60   29   30 am   BACKBONE|DICT|INTERRES
    61   29   99 1    
    62   30   31 2    
    63   30   32 1    
    64   32   33 1    
    65   32   34 1    
    66   32  100 1    
    67   33  101 1    
    68   33  102 1    
    69   33  103 1    
    70   34   35 am   BACKBONE|DICT|INTERRES
    71   34  104 1    
    72   35   36 2    
    73   37   38 2    
    74   37   39 am   BACKBONE|DICT|INTERRES
    75   39   40 1    
    76   39  105 1    
    77   40   41 1    
    78   40   42 1    
    79   40  106 1    
    80   41  107 1    
    81   41  108 1    
    82   41  109 1    
    83   42   43 2    
    84   42   44 am   BACKBONE|DICT|INTERRES
    85   44   45 1    
    86   44  110 1    
    87   45   46 1    
    88   45   47 1    
    89   45  111 1    
    90   46  112 1    
    91   46  113 1    
    92   46  114 1    
    93   47   48 2    
    94   47   49 am   BACKBONE|DICT|INTERRES
    95   49   50 1    
    96   49  115 1    
    97   50   51 1    
    98   50   52 1    
    99   50  116 1    
   100   51  117 1    
   101   51  118 1    
   102   51  119 1    
   103   52   53 2    
   104   52   54 am   BACKBONE|DICT|INTERRES
   105   54   55 1    
   106   54  120 1    
   107   55   56 1    
   108   55   57 1    
   109   55  121 1    
   110   56  122 1    
   111   56  123 1    
   112   56  124 1    
   113   57   58 2    
   114   57   59 am   BACKBONE|DICT|INTERRES
   115   59   60 1    
   116   59  125 1    
   117   60   61 1    
   118   60   62 1    
   119   60  126 1    
   120   61  127 1    
   121   61  128 1    
   122   61  129 1    
   123   62   63 2    
   124   62   64 am   BACKBONE|DICT|INTERRES
   125   64   65 1    
   126   64  130 1    
   127   65   66 1    
   128   65   69 1    
   129   65  131 1    
   130   66   67 am   BACKBONE|DICT|INTERRES
   131   66   68 2    
   132   67  132 1    
   133   67  133 1    
   134   69   70 1    
   135   69  134 1    
   136   69  135 1    
   137   70   71 1    
   138   71  136 1    
   139   71  137 1    
@<TRIPOS>SUBSTRUCTURE
     1 UNK         1 GROUP             0       ****    0 ROOT    
